<?xml version="1.0" encoding="UTF-8"?>

<!-- generated on 07/02/20 14:05:49 by Eclipse SUMO polyconvert Version 1.6.0
<configuration xmlns:xsi="http://www.w3.org/2001/XMLSchema-instance" xsi:noNamespaceSchemaLocation="http://sumo.dlr.de/xsd/polyconvertConfiguration.xsd">

    <input>
        <net-file value="lachine.net.xml"/>
        <osm-files value="lachine_bbox.osm.xml"/>
        <osm.keep-full-type value="true"/>
        <type-file value="C:\Users\epicb\Documents\Sumo\data\typemap\osmPolyconvert.typ.xml"/>
    </input>

    <output>
        <output-file value="lachine.poly.xml"/>
    </output>

    <processing>
        <poi-layer-offset value="5"/>
    </processing>

    <report>
        <verbose value="true"/>
    </report>

</configuration>
-->

<additional xmlns:xsi="http://www.w3.org/2001/XMLSchema-instance" xsi:noNamespaceSchemaLocation="http://sumo.dlr.de/xsd/additional_file.xsd">
    <location netOffset="-598224.23,-5029948.34" convBoundary="-9552.98,-3511.33,14986.70,23245.46" origBoundary="-73.866607,45.380186,-73.551058,45.623965" projParameter="+proj=utm +zone=18 +ellps=WGS84 +datum=WGS84 +units=m +no_defs"/>

    <poly id="101888041" type="landuse.grass" color="194,194,130" fill="1" layer="-3.00" shape="295.540214,5057.580786 524.358240,5074.974237 565.699513,5094.026131 996.920440,5575.152388 992.808777,5583.488406 668.385068,5478.850881 295.540214,5057.580786"/>
    <poly id="101888044" type="landuse.grass" color="194,194,130" fill="1" layer="-3.00" shape="1741.477117,6680.329579 1659.203554,6317.377670 2020.068267,6722.063680 2030.595538,6755.091250 2028.955420,6803.470913 2018.178766,6827.701830 1965.689556,6878.703774 1943.862051,6879.222339 1928.487758,6877.554730 1866.951206,6816.944235 1741.477117,6680.329579"/>
    <poly id="101888052" type="landuse.grass" color="194,194,130" fill="1" layer="-3.00" shape="1329.229623,6215.705380 1253.176488,5866.326802 1582.176821,6232.254437 1611.256867,6289.612183 1657.052254,6513.122178 1653.260211,6527.885851 1643.116105,6537.970196 1630.424194,6538.657385 1596.788627,6509.763785 1555.527134,6470.225754 1329.229623,6215.705380"/>
    <poly id="101888057" type="landuse.grass" color="194,194,130" fill="1" layer="-3.00" shape="268.818536,5012.256957 256.972540,5006.192863 243.786637,4996.307379 221.957897,4975.552006 191.206107,4941.833335 171.454290,4916.265709 147.713632,4881.734739 139.893240,4856.276238 158.469480,4827.086083 176.282469,4806.696092 194.016564,4791.849959 221.980238,4769.974457 251.914974,4755.075161 270.402473,4762.532354 509.509607,5030.102632 268.818536,5012.256957"/>
    <poly id="101888063" type="landuse.grass" color="194,194,130" fill="1" layer="-3.00" shape="721.307910,5535.368184 1207.232132,6078.746207 1222.091676,6087.871363 1237.102740,6086.931124 1250.074581,6077.013145 1255.750022,6064.234870 1199.912820,5807.610221 1071.515626,5665.730054 1025.523141,5637.033412 721.307910,5535.368184"/>
    <poly id="104073151" type="building.residential" color="255,230,230" fill="1" layer="-1.00" shape="7689.750697,3531.930924 7702.728934,3525.826460 7673.262093,3463.632225 7679.467405,3460.714099 7674.738587,3450.744125 7655.554920,3459.766791 7689.750697,3531.930924"/>
    <poly id="108399905" type="building.yes" color="255,230,230" fill="1" layer="-1.00" shape="5138.592130,3751.601132 5138.770973,3740.724865 5159.757085,3740.236540 5160.000651,3751.108643 5138.592130,3751.601132"/>
    <poly id="11027582" type="aeroway.aerodrome" color="grey" fill="1" layer="-2.00" shape="2520.835134,7060.895636 2525.592362,7040.658337 2528.051117,7030.174263 2521.001574,7002.768896 2395.222983,6871.125199 2390.975702,6842.964811 2330.694614,6794.515694 2345.954229,6763.322872 2347.191260,6635.304811 2488.631429,6503.910568 2245.615188,6233.330449 2032.813596,5998.991388 1806.959341,5749.083782 1751.707598,5799.810300 1705.026345,5842.672670 1647.094371,5895.857721 1539.030645,5776.126791 1483.387636,5825.060284 1144.493340,5442.191605 1203.063175,5393.634810 1138.544690,5316.483197 1185.855489,5274.337809 896.946362,4957.360364 1017.909141,4843.823346 617.684534,4396.566591 562.924351,4446.288909 540.536301,4424.234653 385.000312,4570.664032 22.838576,4181.650687 144.540795,4080.687724 79.815235,3995.566090 54.416128,3956.286986 40.504765,3920.098998 15.451866,3818.096615 -8.986462,3797.845950 -285.837587,3799.115754 -494.744947,3763.749839 -621.863707,3736.349918 -976.704317,3732.594910 -1046.161048,3737.799163 -1044.185181,3738.496443 -1089.899068,3734.289524 -1233.965820,3735.031925 -1329.890347,3722.507027 -1403.769197,3720.313001 -1479.914025,4026.426540 -1518.188166,4195.554341 -1565.296637,4384.948505 -1577.182696,4436.737530 -1621.329077,4620.865998 -1727.340708,4598.935234 -1787.324591,4585.302079 -1791.327937,4598.508619 -1896.102299,4572.843793 -1892.565287,4556.374170 -1952.314241,4539.101415 -1935.712244,4465.137410 -2055.042818,4435.863099 -2091.302744,4405.961052 -2074.416728,4328.167377 -2126.084766,4281.939411 -2110.132910,4256.014153 -2182.746536,4213.922389 -2254.460593,4524.112335 -2290.154335,4664.058629 -2336.579860,4847.323304 -2618.962591,4658.380856 -2654.659542,4663.371726 -2851.684939,4527.043737 -2902.363143,4513.273629 -2953.486337,4690.814975 -2925.985455,4706.455611 -2944.049597,4748.207830 -2966.160524,4737.093830 -3006.497999,4894.074929 -3007.396762,5311.489244 -2901.785394,5381.908298 -3001.829755,5527.160567 -2481.272833,5901.230009 -2421.711984,5681.405476 -2413.218263,5548.466522 -2389.161390,5552.733834 -2378.456700,5505.048043 -1591.151438,5694.237668 -1517.870066,5787.063551 -1366.702724,5935.818651 -592.015761,6825.972374 -529.451294,6901.853485 -341.701069,6737.581138 234.445143,7369.268666 195.142296,7420.069383 223.758237,7454.088466 605.457071,7907.981121 647.405724,7937.867263 685.143918,7911.014114 731.219183,7943.877297 913.825305,7834.411908 1508.230982,7272.347320 1590.585608,7378.535142 1941.732038,7184.280760 2005.288317,7218.476743 2141.166922,7385.834016 2489.621292,7087.609402 2511.949729,7068.498490 2520.835134,7060.895636"/>
    <poly id="11033389" type="aeroway.runway" color="grey" fill="0" layer="-2.00" shape="182.531491,4617.384562 214.188404,4653.339764 236.796915,4678.807791 292.109758,4741.192496 592.231887,5079.630594 1142.784512,5693.593332 1156.857352,5708.028685 1595.192645,6198.923994 1642.310465,6251.823562 2086.528898,6750.906033 2121.016552,6791.328499 2133.414719,6806.061714"/>
    <poly id="11033412" type="aeroway.taxiway" color="grey" fill="0" layer="-2.00" shape="2086.528898,6750.906033 2090.644936,6756.539121 2094.224163,6762.497009 2096.389237,6767.910024 2097.352262,6773.203825 2097.912978,6780.680354 2097.584994,6787.998223 2096.013399,6794.862841 2093.200688,6801.607620 2085.863384,6811.169366 2080.434358,6818.239072 2072.743534,6833.784799 2068.694980,6844.488111 2066.370695,6854.918925 2065.300807,6872.959581 2065.426668,6878.295570 2064.801351,6884.653021 2063.549527,6890.589307 2061.910086,6894.852533 2059.133626,6898.353068 2053.915676,6902.981425 1995.108560,6954.571205 1990.243603,6957.660614 1986.010785,6959.348833 1981.546854,6960.333282 1976.985206,6960.582753 1972.661556,6960.124828 1968.457960,6959.002074 1964.483480,6957.238456 1960.831017,6954.891019 1956.633178,6950.956914 1918.333472,6909.852257 1884.508720,6873.908687 1875.011400,6863.533842 1865.679749,6852.572694 1728.526756,6696.780992 1621.668842,6576.956070 1603.858407,6557.337322 1589.010815,6540.677171 1572.123636,6521.984412 1419.651651,6351.165981 1410.024397,6340.011966 1401.148488,6329.792216 1306.900317,6223.085738 1244.194543,6153.073290 1161.117642,6059.969875 1135.234898,6030.990450 682.519675,5521.744834 639.473450,5476.084483 618.886862,5453.602531 570.341142,5400.577579 538.905880,5365.323923 454.633146,5269.355943 381.712267,5188.324510 250.851352,5042.500898 242.443163,5033.134788"/>
    <poly id="11033551" type="aeroway.taxiway" color="grey" fill="0" layer="-2.00" shape="639.473450,5476.084483 647.177224,5481.939691 655.065033,5487.031053 663.164074,5492.114638 671.586291,5496.536579 681.474148,5501.237190 691.843750,5505.634257 713.800318,5513.091905 1019.247658,5614.053888 1037.592342,5620.933354 1055.183648,5629.467825 1071.714485,5638.307845 1087.392499,5648.167878 1102.854043,5658.857959 1116.929691,5670.159570 1130.281011,5681.772017 1142.784512,5693.593332"/>
    <poly id="11033567" type="aeroway.taxiway" color="grey" fill="0" layer="-2.00" shape="1156.857352,5708.028685 1169.546203,5724.931350 1181.862752,5741.639240 1192.519736,5757.476352 1202.942217,5774.787720 1212.083056,5793.534544 1219.975144,5811.639321 1226.793321,5831.393966 1232.460598,5851.241524 1287.005119,6121.736555 1306.900317,6223.085738"/>
    <poly id="11033644" type="aeroway.taxiway" color="grey" fill="0" layer="-2.00" shape="1595.192645,6198.923994 1601.928487,6210.965781 1608.131364,6223.088006 1614.129398,6235.306993 1619.695911,6247.619139 1624.638672,6259.821363 1628.736749,6272.532447 1632.726482,6285.664085 1635.986575,6298.461864 1685.476560,6536.376991 1711.699976,6660.097759 1713.844461,6670.266423 1717.466965,6679.425154 1721.330229,6687.209776 1728.526756,6696.780992"/>
    <poly id="11034496" type="aeroway.taxiway" color="grey" fill="0" layer="-2.00" shape="480.085749,5451.542552 366.065193,5551.574585 340.618359,5574.188947 318.631425,5590.590319 287.392198,5608.135705 250.276259,5622.488779 212.080469,5632.413551 163.397667,5637.951617 37.112559,5629.829977"/>
    <poly id="112794724" type="building.yes" color="255,230,230" fill="1" layer="-1.00" shape="8247.437304,5630.918577 8257.288946,5649.899498 8259.188751,5648.998225 8258.911458,5646.904321 8259.753378,5646.596321 8261.886887,5650.822005 8272.038247,5645.659943 8269.917834,5641.123319 8270.862889,5640.728166 8272.422604,5641.899223 8275.593444,5640.286058 8275.421359,5637.982793 8276.583607,5637.691338 8278.916969,5642.120447 8288.473672,5636.981668 8286.425884,5632.312916 8287.478690,5632.019608 8289.341398,5633.306934 8292.623575,5631.584536 8292.344596,5629.590617 8293.191606,5628.982662 8295.426914,5633.198971 8305.058803,5628.239296 8303.136197,5624.028286 8303.985093,5623.309236 8305.842527,5624.907636 8309.024781,5623.083537 8308.885108,5620.714145 8309.907401,5620.375871 8311.928051,5624.799689 8321.565243,5619.528971 8319.651499,5614.795804 8321.128334,5614.398564 8322.669490,5616.202748 8324.151600,5615.494441 8314.707263,5596.942604 8311.431185,5598.765109 8309.993344,5596.862665 8300.254502,5602.131678 8301.681607,5604.667367 8300.623521,5605.271742 8299.273178,5604.204243 8295.997108,5606.026756 8295.757594,5607.700726 8294.804527,5608.106853 8293.486864,5605.573021 8283.435353,5610.836759 8285.055167,5613.998027 8283.998780,5614.502418 8282.761459,5613.225696 8279.063069,5615.052171 8279.129288,5617.142497 8277.974854,5617.434085 8276.772939,5614.068760 8266.721455,5619.332524 8268.548768,5622.708448 8267.492384,5623.212842 8265.731294,5621.927245 8262.450815,5623.549670 8262.626483,5625.641851 8261.570100,5626.146246 8260.053787,5622.875611 8250.000449,5628.250497 8251.724447,5631.724680 8250.769692,5632.230799 8249.124349,5630.113710 8247.437304,5630.918577"/>
    <poly id="112794727" type="building.yes" color="255,230,230" fill="1" layer="-1.00" shape="8320.222246,5593.591167 8329.967873,5612.359265 8337.908522,5607.993270 8336.793942,5605.473987 8344.731024,5601.319083 8345.748408,5603.114388 8346.816200,5602.399057 8347.924656,5604.818223 8356.494116,5600.262888 8345.625295,5579.486504 8337.157443,5584.043578 8338.275420,5586.362889 8329.173142,5591.442626 8327.955421,5589.010497 8320.222246,5593.591167"/>
    <poly id="117595232" type="leisure.park" color="207,245,201" fill="1" layer="-2.00" shape="5882.611974,1637.484371 5900.034311,1665.065236 5910.386649,1669.281592 5920.513725,1649.768883 5921.940822,1643.913958 5921.897606,1638.490304 5919.218536,1632.534056 5913.429517,1637.194395 5906.112803,1630.627972 5888.023531,1613.081822 5854.654676,1591.171240 5801.900090,1565.250847 5806.085225,1557.741288 5807.566074,1555.254338 5824.468320,1524.907654 5784.795044,1505.660220 5764.292243,1490.652661 5675.362802,1450.533693 5637.717471,1440.155197 5593.567681,1419.468253 5509.837191,1410.819338 5484.924553,1410.741946 5451.654541,1397.880829 5425.805659,1398.110506 5391.574837,1391.790283 5364.866880,1370.536631 5357.614322,1369.050364 5321.599152,1365.112569 5269.285812,1366.829806 5125.805217,1391.474355 5004.843125,1403.856693 4831.421547,1418.359855 4581.974180,1428.713345 4479.733605,1439.011414 4429.566382,1447.860410 4398.946639,1453.261536 4383.231744,1473.118783 4374.123579,1491.850335 4370.788065,1507.820139 4370.222515,1519.467913 4113.492532,1608.919641 4110.065465,1614.208985 4111.756231,1619.937192 4117.236665,1622.615563 4376.667007,1534.997158 4455.738213,1508.350572 4567.999581,1501.482968 4829.381497,1538.108203 4897.598148,1547.504982 4973.059003,1541.708296 5090.126104,1517.626641 5156.665704,1497.661606 5238.257640,1478.811596 5346.606634,1454.013406 5436.314936,1452.201748 5530.861414,1466.373226 5659.223995,1516.653582 5847.970803,1608.774092 5861.933713,1618.461926 5882.611974,1637.484371"/>
    <poly id="117595442" type="amenity.parking" color="184,184,179" fill="1" layer="-1.00" shape="4221.935099,1986.231263 4222.420665,1950.656989 4222.150771,1942.729390 4159.485035,1944.864922 4160.961440,1987.783141 4221.935099,1986.231263"/>
    <poly id="117595443" type="amenity.parking" color="184,184,179" fill="1" layer="-1.00" shape="4366.434870,2061.084547 4372.779360,2045.297171 4337.357506,2029.662008 4332.449530,2047.561990 4366.434870,2061.084547"/>
    <poly id="117595445" type="leisure.park" color="207,245,201" fill="1" layer="-2.00" shape="3981.153707,1954.466022 4001.743356,1959.945716 4056.995405,1984.524686 4066.759822,1989.806339 4078.081750,1994.090994 4108.046190,1995.122971 4097.667158,1934.324418 4093.507815,1919.710518 4024.773768,1918.759425 4020.616537,1903.523315 4012.843311,1904.730454 4006.107158,1906.154483 4008.916104,1921.068630 3984.427314,1923.937694 3959.180666,1927.705762 3946.890622,1909.314990 3950.733231,1905.399148 3944.511274,1900.697512 3903.192359,1884.813492 3859.385335,1936.408706 3809.970109,1981.201293 3768.446356,1999.674558 3705.878518,2017.551413 3607.549548,2058.063677 3583.644876,2077.579077 3538.128986,2096.744848 3490.767180,2107.191151 3463.363164,2108.970495 3446.224864,2113.594004 3377.712547,2116.498403 3365.243292,2122.686628 3360.843227,2134.505867 3346.807683,2142.246794 3321.275833,2143.412465 3297.276829,2152.370578 3269.898545,2144.816726 3235.917396,2158.092297 3222.526717,2158.365230 3193.169708,2164.837022 3198.639083,2186.627806 3286.825875,2172.637656 3341.126666,2160.234987 3384.919760,2158.530975 3448.290766,2171.156537 3484.619612,2170.932746 3534.972982,2153.022798 3693.068866,2075.128607 3867.257265,1984.064498 3880.300948,1977.242048 3935.553143,1958.959144 3981.153707,1954.466022"/>
    <poly id="117595446" type="amenity.parking" color="184,184,179" fill="1" layer="-1.00" shape="5750.523711,1521.251322 5760.831557,1500.252272 5624.544182,1435.203759 5569.808777,1419.654040 5496.024621,1414.258720 5416.609992,1404.382047 5362.099806,1400.772740 5360.946139,1423.790040 5495.347037,1429.727329 5551.777436,1444.037529 5723.841993,1522.188309 5727.295427,1516.811334 5747.794993,1526.806952 5750.523711,1521.251322"/>
    <poly id="117595447" type="amenity.parking" color="184,184,179" fill="1" layer="-1.00" shape="5919.218536,1632.534056 5913.429517,1637.194395 5906.112803,1630.627972 5888.023531,1613.081822 5854.654676,1591.171240 5801.900090,1565.250847 5806.085225,1557.741288 5862.168742,1585.817075 5886.998920,1603.130222 5906.150580,1619.838286 5919.218536,1632.534056"/>
    <poly id="117595454" type="amenity.parking" color="184,184,179" fill="1" layer="-1.00" shape="4354.922311,2020.536181 4358.503978,2006.248367 4360.086134,1999.906713 4322.233731,1991.766273 4319.742255,2003.015943 4327.889839,2005.237938 4326.110178,2011.698616 4354.922311,2020.536181"/>
    <poly id="117595457" type="amenity.parking" color="184,184,179" fill="1" layer="-1.00" shape="4008.916104,1921.068630 4006.107158,1906.154483 4005.225412,1901.195101 3995.215528,1902.821519 3991.790053,1886.363839 3981.322083,1887.771699 3979.313908,1870.759210 3950.104434,1874.751853 3849.911875,1841.832342 3844.984632,1852.320334 3905.121772,1876.332671 3903.192359,1884.813492 3944.511274,1900.697512 3950.733231,1905.399148 3946.890622,1909.314990 3959.180666,1927.705762 3975.728968,1925.263194 3984.427314,1923.937694 4008.916104,1921.068630"/>
    <poly id="118630156" type="population.1735450" color="51,128,255" fill="0" layer="-1.00" shape="1886.739851,2494.900411 1682.495057,651.860175"/>
    <poly id="120486721" type="landuse.cemetery" color="194,194,130" fill="1" layer="-3.00" shape="4792.259481,3351.120272 4819.978191,3349.896546 4822.254035,3262.111401 4753.005824,3261.432377 4749.296808,3344.604561 4751.303630,3350.071465 4792.259481,3351.120272"/>
    <poly id="120819865" type="amenity.parking" color="184,184,179" fill="1" layer="-1.00" shape="7718.740403,2972.983285 7724.789905,2962.628163 7681.957354,2939.525569 7677.870166,2945.313121 7681.823559,2947.468898 7684.072857,2948.618056 7680.455208,2957.647312 7706.156902,2972.771269 7708.749288,2968.414314 7718.740403,2972.983285"/>
    <poly id="120819870" type="amenity.parking" color="184,184,179" fill="1" layer="-1.00" shape="7637.216547,3039.964392 7630.255793,3047.770554 7607.695373,3029.610445 7611.117182,3025.700808 7606.752876,3023.327017 7615.963604,2999.434175 7629.830871,2985.654508 7636.573859,2992.180063 7644.833897,3000.598104 7629.250121,3020.149670 7640.329262,3028.859648 7633.579052,3037.169423 7637.216547,3039.964392"/>
    <poly id="120908910" type="landuse.industrial" color="209,209,204" fill="1" layer="-3.00" shape="7672.258315,3081.104753 7674.438873,3061.716471 7646.027486,3036.567796 7675.361582,2992.999932 7710.873530,3013.200972 7718.920413,3000.834761 7764.027555,2990.137769 7873.552627,3047.359652 8217.727066,3252.483894 8334.097611,3314.241772 8747.898106,3557.682238 8830.951820,3618.949518 8908.932071,3698.300899 8980.165460,3786.961904 9124.272710,4015.344607 9209.302955,4110.045021 9181.366131,4134.649185 9052.317150,4032.974534 8913.979103,3936.834101 8748.396469,3836.365909 8660.171183,3793.703380 8419.252356,3666.615423 8361.985895,3628.838721 7672.258315,3081.104753"/>
    <poly id="121548871" type="waterway.canal" color="181,209,209" fill="0" layer="-4.00" shape="5973.301965,1779.860215 6086.864988,1844.895370 6177.088240,1871.162288 6348.067767,1947.557017 6442.689680,2007.438835 6579.479917,2105.418662 6744.130992,2218.601928 7088.675402,2415.777608 7361.434902,2644.660708 7545.639794,2799.233520 8196.453965,3181.980157 8697.190323,3466.850558 8832.625684,3567.970349 8983.061525,3703.376401 9204.851581,4012.165060 9596.261997,4402.260059 10162.408731,4777.978863 10978.368870,5181.480674 11341.300606,5420.326620 11476.868253,5536.422467 11486.447767,5564.183271 11511.502991,5594.170276 11620.671114,5684.381887 11786.859214,5776.271682 11866.065182,5815.521247"/>
    <poly id="121548875" type="waterway.canal" color="181,209,209" fill="0" layer="-4.00" shape="5917.447352,1752.742829 5972.440517,1779.434779 5973.301965,1779.860215"/>
    <poly id="124818524" type="leisure.pitch" color="207,245,201" fill="1" layer="-2.00" shape="8451.387054,6595.614051 8452.518580,6558.916525 8514.791548,6560.841370 8513.652030,6597.527648 8451.387054,6595.614051"/>
    <poly id="124818524#1" type="sport.tennis" color="79,230,125" fill="1" layer="-2.00" shape="8451.387054,6595.614051 8452.518580,6558.916525 8514.791548,6560.841370 8513.652030,6597.527648 8451.387054,6595.614051"/>
    <poly id="124818525" type="leisure.pitch" color="207,245,201" fill="1" layer="-2.00" shape="8367.759694,6609.040872 8420.842293,6577.081434 8456.070470,6635.188555 8402.987969,6667.158802 8367.759694,6609.040872"/>
    <poly id="124818525#1" type="sport.tennis" color="79,230,125" fill="1" layer="-2.00" shape="8367.759694,6609.040872 8420.842293,6577.081434 8456.070470,6635.188555 8402.987969,6667.158802 8367.759694,6609.040872"/>
    <poly id="128586562" type="natural.wood" color="140,196,107" fill="1" layer="-4.00" shape="1602.909861,1678.553830 1651.762577,1712.144083 1670.933300,1744.063125 1674.901240,1790.297922 1669.665523,1798.271214 1659.699954,1800.102058 1626.780371,1792.467473 1570.877675,1798.392123 1541.655301,1794.428157 1524.908200,1799.596475 1501.572040,1771.290029 1489.454477,1738.105406 1493.324187,1702.773982 1510.749095,1685.959486 1527.716984,1678.727730 1565.418157,1673.025045 1602.909861,1678.553830"/>
    <poly id="128586855" type="man_made.dyke" color="255,230,230" fill="0" layer="-1.00" shape="4370.222515,1519.467913 4113.492532,1608.919641 4110.065465,1614.208985 4111.756231,1619.937192 4117.236665,1622.615563 4376.667007,1534.997158 4397.641377,1527.993948"/>
    <poly id="128586859" type="landuse.recreation_ground" color="194,194,130" fill="1" layer="-3.00" shape="4800.482759,1877.444414 4847.784206,1879.063942 4868.825013,1879.908848 4907.010826,1876.789943 4908.637301,1874.938596 4929.007740,1870.860975 4940.582900,1869.706207 4974.014371,1859.275470 5106.122788,1814.160594 5165.906834,1791.828924 5216.667874,1766.293465 5248.081801,1764.420968 5267.175959,1765.668560 5390.235697,1739.568682 5429.954940,1727.988186 5445.220298,1732.729238 5474.273757,1733.097032 5509.819553,1731.205054 5529.525615,1730.463272 5588.191834,1741.877060 5626.639015,1744.812031 5683.205729,1749.735651 5695.497631,1748.794126 5723.641447,1760.171713 5723.363124,1763.756473 5722.845480,1770.459910 5660.094166,1764.333635 5653.333381,1768.633665 5561.441902,1766.449992 5528.755590,1769.555659 5379.270327,1798.684619 5363.589010,1800.204350 5322.827316,1792.921207 5275.933534,1794.538585 5243.090311,1798.643272 5218.203469,1805.657110 5177.265597,1817.652271 5156.146203,1828.239848 5099.743413,1858.617057 5036.129685,1888.376301 5003.078320,1901.868891 4953.832616,1919.096478 4873.077752,1934.541042 4823.226346,1939.113655 4788.435375,1929.887086 4756.416726,1911.416040 4730.822621,1887.616305 4732.064440,1875.323967 4739.997756,1871.997842 4800.482759,1877.444414"/>
    <poly id="128586896" type="man_made.pier" color="255,230,230" fill="0" layer="-1.00" shape="4557.269361,1870.353777 4575.748218,1938.908783"/>
    <poly id="128586923" type="population.5" color="51,128,255" fill="1" layer="-1.00" shape="355.547440,1601.808404 438.824914,1652.885947 447.030236,1691.429782 481.413531,1746.497181 534.594697,1796.737158 557.538450,1831.856665 568.172606,1856.170675 572.162605,1882.580570 568.078273,1931.910513 553.965286,1942.301079 512.769616,1947.510396 463.982160,1944.922269 393.169159,1965.391578 318.837050,1976.305540 264.439180,1956.795968 244.643744,1955.385902 220.843569,1974.404230 145.775912,1938.837234 126.059695,1940.862470 93.194151,1944.237920 -11.889081,1972.965917 -64.754478,1949.449407 -122.678661,1873.537995 -140.689646,1875.079505 -171.936504,1830.321131 -179.247681,1804.960148 -175.841130,1774.643497 -162.165503,1745.575939 -106.337746,1696.685945 -53.089662,1672.269772 9.917591,1658.240824 109.073938,1656.134240 168.197735,1631.811763 303.151799,1595.131311 355.547440,1601.808404"/>
    <poly id="128587020" type="natural.water" color="181,209,209" fill="1" layer="-4.00" shape="811.391329,1789.732606 827.850244,1798.848280 828.389786,1866.930701 826.431670,1870.544697 810.148333,1873.644198 785.027132,1852.690954 775.917049,1818.588386 780.957111,1795.631935 811.391329,1789.732606"/>
    <poly id="128587071" type="landuse.recreation_ground" color="194,194,130" fill="1" layer="-3.00" shape="5698.332087,1672.897680 5716.208058,1678.749330 5837.408128,1734.082518 5856.976839,1746.374539 5842.840196,1778.889392 5810.735839,1772.346398 5768.174333,1772.187088 5741.994922,1765.520159 5729.102108,1743.170829 5714.133642,1733.733370 5698.147766,1729.990999 5681.766965,1712.262537 5681.090849,1689.248359 5684.596009,1678.838226 5689.600867,1674.742581 5698.332087,1672.897680"/>
    <poly id="128587205" type="man_made.dyke" color="255,230,230" fill="0" layer="-1.00" shape="3905.121772,1876.332671 3844.984632,1852.320334 3849.911875,1841.832342 3950.104434,1874.751853 3979.313908,1870.759210 3981.322083,1887.771699 3991.790053,1886.363839 4036.962807,1880.308405 4039.736569,1888.721197 4011.003424,1893.254699 4012.097310,1900.084426 4012.843311,1904.730454 4020.616537,1903.523315"/>
    <poly id="128587416" type="man_made.dyke" color="255,230,230" fill="0" layer="-1.00" shape="4595.197257,1992.600076 4591.584919,1981.928577 4586.544951,1983.446390 4575.748218,1938.908783 4550.187638,1949.414650 4559.407481,1989.914824 4542.890755,1993.289826 4538.657104,2002.921868 4535.575120,2008.149952 4527.950847,2018.437804 4513.848415,2021.541174 4511.643377,2030.561846 4498.871011,2032.709074 4498.596884,2019.314030 4490.191695,2018.976731 4489.647169,1995.309320 4479.056365,1994.658531 4472.758537,2019.547710 4454.076046,2019.487153 4453.801641,2006.103222 4443.230526,2002.330201 4443.563173,1993.934581 4419.478951,1989.752118 4414.889621,1988.110359 4415.549299,1983.164950 4405.909240,1981.785263 4405.548778,1976.545395 4382.269016,1969.086905 4334.339564,1953.725575 4284.648801,1930.246019 4230.786019,1930.390728 4189.683792,1931.521540 4189.808334,1890.718527 4189.868412,1869.250188 4221.641142,1864.978139 4221.362486,1854.705665 4181.489987,1859.568145 4175.552665,1866.705705 4175.673693,1929.915479 4161.040683,1929.566131 4153.900161,1923.626957 4113.126804,1919.451858 4113.940917,1902.596361 4114.858148,1883.731182 4115.117721,1878.356966 4141.285135,1872.837615"/>
    <poly id="129387432" type="building.yes" color="255,230,230" fill="1" layer="-1.00" shape="8746.696139,1793.410929 8757.514021,1773.825343 8733.916688,1760.866632 8723.098860,1780.452258 8746.696139,1793.410929"/>
    <poly id="129387433" type="building.yes" color="255,230,230" fill="1" layer="-1.00" shape="8836.012290,1860.062384 8857.341260,1872.027183 8869.765407,1850.024321 8848.436383,1838.059481 8836.012290,1860.062384"/>
    <poly id="129387435" type="building.yes" color="255,230,230" fill="1" layer="-1.00" shape="9017.088609,2140.621788 9038.344903,2124.659623 9013.709174,2092.868170 9008.686129,2091.949067 8990.849751,2104.191291 9017.088609,2140.621788"/>
    <poly id="129437726" type="amenity.parking" color="184,184,179" fill="1" layer="-1.00" shape="7920.578825,4823.946380 7913.839434,4810.863962 7948.952667,4792.898840 7955.692007,4805.981296 7920.578825,4823.946380"/>
    <poly id="129437727" type="amenity.parking" color="184,184,179" fill="1" layer="-1.00" shape="7993.834096,4925.765777 7986.937056,4911.847149 8019.945567,4894.847005 8027.271882,4908.350645 7993.834096,4925.765777"/>
    <poly id="129437728" type="amenity.parking" color="184,184,179" fill="1" layer="-1.00" shape="7883.053043,4844.004562 7858.673405,4796.919396 7888.305071,4781.684042 7912.692562,4828.758348 7883.053043,4844.004562"/>
    <poly id="129437729" type="leisure.pitch" color="207,245,201" fill="1" layer="-2.00" shape="8317.411265,4876.680058 8229.057197,4763.866011 8291.000822,4715.674968 8313.062799,4743.842004 8359.733346,4803.542245 8379.306865,4828.533527 8317.411265,4876.680058"/>
    <poly id="129437729#1" type="sport.canadian_football" color="79,230,125" fill="1" layer="-2.00" shape="8317.411265,4876.680058 8229.057197,4763.866011 8291.000822,4715.674968 8313.062799,4743.842004 8359.733346,4803.542245 8379.306865,4828.533527 8317.411265,4876.680058"/>
    <poly id="129437731" type="amenity.parking" color="184,184,179" fill="1" layer="-1.00" shape="7988.494599,4981.172639 7969.620879,4946.181835 7980.645869,4940.278377 7999.519736,4975.258104 7988.494599,4981.172639"/>
    <poly id="129437733" type="building.university" color="255,230,230" fill="1" layer="-1.00" shape="7850.046564,4836.801887 7841.371555,4821.164284 7859.756907,4811.028653 7871.103304,4831.489867 7860.880589,4837.118132 7858.208977,4832.305661 7850.046564,4836.801887"/>
    <poly id="129437734" type="amenity.parking" color="184,184,179" fill="1" layer="-1.00" shape="8057.341618,4937.030019 8134.043804,4895.521448 8149.869843,4927.560741 8075.700954,4971.890159 8089.093718,4998.453994 8067.941552,5008.964432 8048.925782,4972.693001 8069.992221,4962.169933 8057.341618,4937.030019"/>
    <poly id="129437735" type="amenity.parking" color="184,184,179" fill="1" layer="-1.00" shape="8145.517248,4787.832924 8156.051437,4785.077477 8167.343022,4773.155726 8180.832241,4758.926411 8169.903423,4745.261582 8163.762106,4750.925132 8141.027794,4755.974425 8132.504116,4763.775783 8145.517248,4787.832924"/>
    <poly id="129437736" type="leisure.pitch" color="207,245,201" fill="1" layer="-2.00" shape="8422.115493,4825.403769 8477.266294,4781.677716 8391.252736,4673.890735 8336.093831,4717.617409 8422.115493,4825.403769"/>
    <poly id="129437736#1" type="sport.canadian_football;soccer" color="79,230,125" fill="1" layer="-2.00" shape="8422.115493,4825.403769 8477.266294,4781.677716 8391.252736,4673.890735 8336.093831,4717.617409 8422.115493,4825.403769"/>
    <poly id="129437737" type="amenity.parking" color="184,184,179" fill="1" layer="-1.00" shape="8202.043557,4571.346511 8218.337382,4575.800868 8248.859066,4557.081709 8257.255536,4556.812798 8319.020663,4600.932737 8271.599818,4626.466215 8263.057398,4610.430198 8248.254136,4617.713831 8237.729538,4594.954383 8228.854266,4598.560149 8220.347743,4580.857889 8211.493536,4583.219408 8200.665192,4578.846510 8180.574340,4576.005934 8196.629279,4569.165622 8202.043557,4571.346511"/>
    <poly id="146921440" type="leisure.pitch" color="207,245,201" fill="1" layer="-2.00" shape="5392.857550,4796.559687 5361.558980,4735.413310 5296.806753,4769.462083 5315.461913,4808.663537 5344.204871,4820.838773 5392.857550,4796.559687"/>