<?xml version="1.0" encoding="UTF-8"?>

<!-- generated on 08/19/20 14:11:41 by Eclipse SUMO duarouter Version 1.6.0
<configuration xmlns:xsi="http://www.w3.org/2001/XMLSchema-instance" xsi:noNamespaceSchemaLocation="http://sumo.dlr.de/xsd/duarouterConfiguration.xsd">

    <input>
        <net-file value="montreal.net.xml"/>
        <route-files value="Trips/montreal.passenger.trips.xml"/>
    </input>

    <output>
        <output-file value="Trips/montreal.passenger.trips.xml.tmp"/>
        <write-trips value="true"/>
    </output>

    <time>
        <begin value="0"/>
        <end value="600.0"/>
    </time>

    <report>
        <no-warnings value="true"/>
        <ignore-errors value="true"/>
        <no-step-log value="true"/>
    </report>

</configuration>
-->

<routes xmlns:xsi="http://www.w3.org/2001/XMLSchema-instance" xsi:noNamespaceSchemaLocation="http://sumo.dlr.de/xsd/routes_file.xsd">
    <vType id="veh_passenger" vClass="passenger"/>
    <trip id="veh0" type="veh_passenger" depart="0.00" departLane="best" from="34287041" to="-16002389#1"/>
    <trip id="veh1" type="veh_passenger" depart="0.75" departLane="best" from="-46689073" to="-455456464#1"/>
    <trip id="veh2" type="veh_passenger" depart="1.50" departLane="best" from="452652551" to="40312427#0"/>
    <trip id="veh4" type="veh_passenger" depart="3.00" departLane="best" from="18373385#6" to="-164818751#42"/>
    <trip id="veh5" type="veh_passenger" depart="3.75" departLane="best" from="-452477551" to="22775435#0"/>
    <trip id="veh6" type="veh_passenger" depart="4.50" departLane="best" from="-163589268#3" to="-42902403#1"/>
    <trip id="veh7" type="veh_passenger" depart="5.25" departLane="best" from="362326132#24" to="231387458#2"/>
    <trip id="veh8" type="veh_passenger" depart="6.00" departLane="best" from="-452689426" to="27208893#5"/>
    <trip id="veh9" type="veh_passenger" depart="6.75" departLane="best" from="460736588" to="-110615651#2"/>
    <trip id="veh10" type="veh_passenger" depart="7.50" departLane="best" from="460538974#3" to="433015103"/>
    <trip id="veh11" type="veh_passenger" depart="8.25" departLane="best" from="108154740" to="-27785804"/>
    <trip id="veh12" type="veh_passenger" depart="9.00" departLane="best" from="607074463" to="112979428#1"/>
    <trip id="veh13" type="veh_passenger" depart="9.75" departLane="best" from="-21823541#4" to="-22662910#2"/>
    <trip id="veh14" type="veh_passenger" depart="10.50" departLane="best" from="46678064#0" to="29294789#7"/>
    <trip id="veh15" type="veh_passenger" depart="11.25" departLane="best" from="460561551#2" to="452426715#1"/>
    <trip id="veh16" type="veh_passenger" depart="12.00" departLane="best" from="22895001" to="68920347#1"/>
    <trip id="veh17" type="veh_passenger" depart="12.75" departLane="best" from="159499581" to="242961307#1"/>
    <trip id="veh18" type="veh_passenger" depart="13.50" departLane="best" from="464047286#2" to="32799208#12"/>
    <trip id="veh19" type="veh_passenger" depart="14.25" departLane="best" from="46703384#0" to="26820916"/>
    <trip id="veh20" type="veh_passenger" depart="15.00" departLane="best" from="433818620#0" to="-179131908"/>
    <trip id="veh21" type="veh_passenger" depart="15.75" departLane="best" from="-453963465#1" to="-48678890#9"/>
    <trip id="veh22" type="veh_passenger" depart="16.50" departLane="best" from="-20710800#3" to="-459818081"/>
    <trip id="veh23" type="veh_passenger" depart="17.25" departLane="best" departSpeed="max" from="-22770785#1" to="-47472008"/>
    <trip id="veh24" type="veh_passenger" depart="18.00" departLane="best" from="334786305#5" to="157714265#13"/>
    <trip id="veh25" type="veh_passenger" depart="18.75" departLane="best" from="13806026" to="-452636498#16"/>
    <trip id="veh26" type="veh_passenger" depart="19.50" departLane="best" from="-46678063#8" to="554954787"/>
    <trip id="veh27" type="veh_passenger" depart="20.25" departLane="best" from="361452619#0" to="31015869#1"/>
    <trip id="veh28" type="veh_passenger" depart="21.00" departLane="best" from="-32656448#4" to="452385238#0"/>
    <trip id="veh29" type="veh_passenger" depart="21.75" departLane="best" departSpeed="max" from="-285027588" to="164831254#3"/>
    <trip id="veh30" type="veh_passenger" depart="22.50" departLane="best" from="80278547#1" to="354643610#2"/>
    <trip id="veh31" type="veh_passenger" depart="23.25" departLane="best" from="237850128#3" to="414309669#0"/>
    <trip id="veh32" type="veh_passenger" depart="24.00" departLane="best" from="46619613#0" to="455264658#1"/>
    <trip id="veh33" type="veh_passenger" depart="24.75" departLane="best" from="-454019025" to="-164831246#1"/>
    <trip id="veh34" type="veh_passenger" depart="25.50" departLane="best" from="-561803472#2" to="-472516403"/>
    <trip id="veh35" type="veh_passenger" depart="26.25" departLane="best" from="-435716174#0" to="561531465#3"/>
    <trip id="veh36" type="veh_passenger" depart="27.00" departLane="best" from="47470838#0" to="-73850324"/>
    <trip id="veh37" type="veh_passenger" depart="27.75" departLane="best" from="37000352#0" to="165215457#2"/>
    <trip id="veh38" type="veh_passenger" depart="28.50" departLane="best" from="48809177" to="20443814"/>
    <trip id="veh39" type="veh_passenger" depart="29.25" departLane="best" from="-46619641#1" to="-464068848"/>
    <trip id="veh40" type="veh_passenger" depart="30.00" departLane="best" from="24457407#4" to="-46688852#1"/>
    <trip id="veh41" type="veh_passenger" depart="30.75" departLane="best" from="26902055#6" to="47919209"/>
    <trip id="veh42" type="veh_passenger" depart="31.50" departLane="best" from="165059028#11" to="-454209734#0"/>
    <trip id="veh43" type="veh_passenger" depart="32.25" departLane="best" from="87370323#5" to="22806233#3"/>
    <trip id="veh44" type="veh_passenger" depart="33.00" departLane="best" from="-21313882#1" to="-182810199#0"/>
    <trip id="veh45" type="veh_passenger" depart="33.75" departLane="best" from="-22891979#1" to="330301899#3"/>
    <trip id="veh46" type="veh_passenger" depart="34.50" departLane="best" from="456377943" to="19908073#4"/>
    <trip id="veh47" type="veh_passenger" depart="35.25" departLane="best" from="-20218613#2" to="164863999#2"/>
    <trip id="veh48" type="veh_passenger" depart="36.00" departLane="best" from="832706762#5" to="22909977#4"/>
    <trip id="veh49" type="veh_passenger" depart="36.75" departLane="best" from="684244513" to="467905453#2"/>
    <trip id="veh50" type="veh_passenger" depart="37.50" departLane="best" from="-114145866#2" to="451902762#1"/>
    <trip id="veh51" type="veh_passenger" depart="38.25" departLane="best" from="40312419#1" to="22915647#3"/>
    <trip id="veh52" type="veh_passenger" depart="39.00" departLane="best" from="-46678061#1" to="35745413"/>
    <trip id="veh53" type="veh_passenger" depart="39.75" departLane="best" from="-22892199#1" to="20186995#3"/>
    <trip id="veh54" type="veh_passenger" depart="40.50" departLane="best" from="20223682#14" to="59878189#1"/>
    <trip id="veh55" type="veh_passenger" depart="41.25" departLane="best" departSpeed="max" from="47468227#0" to="-46688986#0"/>
    <trip id="veh56" type="veh_passenger" depart="42.00" departLane="best" from="21308354" to="-360886825#1"/>
    <trip id="veh57" type="veh_passenger" depart="42.75" departLane="best" from="48621909#1" to="474613636"/>
    <trip id="veh58" type="veh_passenger" depart="43.50" departLane="best" from="-48423996#0" to="35321903#2"/>
    <trip id="veh59" type="veh_passenger" depart="44.25" departLane="best" from="292819729#3" to="-27309994#0"/>
    <trip id="veh60" type="veh_passenger" depart="45.00" departLane="best" from="453940696#4" to="22915872#0"/>
    <trip id="veh61" type="veh_passenger" depart="45.75" departLane="best" from="455252474#6" to="22910185#0"/>
    <trip id="veh62" type="veh_passenger" depart="46.50" departLane="best" from="-102601065#2" to="105223150#0"/>
    <trip id="veh63" type="veh_passenger" depart="47.25" departLane="best" from="-12720660#2" to="538851388#8"/>
    <trip id="veh64" type="veh_passenger" depart="48.00" departLane="best" from="47471180#0" to="464729227"/>
    <trip id="veh65" type="veh_passenger" depart="48.75" departLane="best" departSpeed="max" from="-536142601#6" to="-20172521#2"/>
    <trip id="veh66" type="veh_passenger" depart="49.50" departLane="best" from="47471004#2" to="564275402"/>
    <trip id="veh67" type="veh_passenger" depart="50.25" departLane="best" from="-20928906#12" to="21164578#2"/>
    <trip id="veh68" type="veh_passenger" depart="51.00" departLane="best" from="-20413542#5" to="453981162#1"/>
    <trip id="veh69" type="veh_passenger" depart="51.75" departLane="best" from="453999958#1" to="-24772388#0"/>
    <trip id="veh70" type="veh_passenger" depart="52.50" departLane="best" from="20513585" to="23889761#0"/>
    <trip id="veh71" type="veh_passenger" depart="53.25" departLane="best" from="-46619673#0" to="47467085"/>
    <trip id="veh72" type="veh_passenger" depart="54.00" departLane="best" from="184759292" to="-453295842"/>
    <trip id="veh73" type="veh_passenger" depart="54.75" departLane="best" from="22910159#2" to="452447251"/>
    <trip id="veh74" type="veh_passenger" depart="55.50" departLane="best" from="-40662358#1" to="-70953504#1"/>
    <trip id="veh75" type="veh_passenger" depart="56.25" departLane="best" from="827392078#2" to="36868945"/>
    <trip id="veh76" type="veh_passenger" depart="57.00" departLane="best" from="19939503#2" to="22892101#3"/>
    <trip id="veh77" type="veh_passenger" depart="57.75" departLane="best" from="-22910824#1" to="-455699700#1"/>
    <trip id="veh78" type="veh_passenger" depart="58.50" departLane="best" from="105391589#0" to="27208542#0"/>
    <trip id="veh79" type="veh_passenger" depart="59.25" departLane="best" from="-454835611" to="-454837994#2"/>
    <trip id="veh80" type="veh_passenger" depart="60.00" departLane="best" from="-20415461#2" to="335592318#0"/>
    <trip id="veh81" type="veh_passenger" depart="60.75" departLane="best" from="-454014493" to="48423989#7"/>
    <trip id="veh82" type="veh_passenger" depart="61.50" departLane="best" from="466895707" to="-20444810#3"/>
    <trip id="veh83" type="veh_passenger" depart="62.25" departLane="best" from="-45572889#0" to="393786494#3"/>
    <trip id="veh84" type="veh_passenger" depart="63.00" departLane="best" from="-44838467#15" to="-25379445#1"/>
    <trip id="veh85" type="veh_passenger" depart="63.75" departLane="best" from="549347506" to="26187078#19"/>
    <trip id="veh86" type="veh_passenger" depart="64.50" departLane="best" from="20447435#5" to="455712869#0"/>
    <trip id="veh87" type="veh_passenger" depart="65.25" departLane="best" from="460561561" to="-399293578#0"/>
    <trip id="veh88" type="veh_passenger" depart="66.00" departLane="best" from="-22082638#1" to="20112623#7"/>
    <trip id="veh89" type="veh_passenger" depart="66.75" departLane="best" from="184778981#6" to="20572201#0"/>
    <trip id="veh90" type="veh_passenger" depart="67.50" departLane="best" from="452076097#2" to="396983238#6"/>
    <trip id="veh91" type="veh_passenger" depart="68.25" departLane="best" from="756303234" to="-22770782#0"/>
    <trip id="veh92" type="veh_passenger" depart="69.00" departLane="best" departSpeed="max" from="165085319" to="11410478"/>
    <trip id="veh93" type="veh_passenger" depart="69.75" departLane="best" departSpeed="max" from="46703383" to="-464718640"/>
    <trip id="veh94" type="veh_passenger" depart="70.50" departLane="best" from="-370735527" to="20314465#1"/>
    <trip id="veh95" type="veh_passenger" depart="71.25" departLane="best" from="18373385#4" to="-47472063"/>
    <trip id="veh96" type="veh_passenger" depart="72.00" departLane="best" from="-462527502" to="51537545#2"/>
    <trip id="veh97" type="veh_passenger" depart="72.75" departLane="best" from="20113483#6" to="46867057#1"/>
    <trip id="veh98" type="veh_passenger" depart="73.50" departLane="best" from="23026577#5" to="-185391389#0"/>
    <trip id="veh99" type="veh_passenger" depart="74.25" departLane="best" from="94047296" to="465384272#1"/>
    <trip id="veh100" type="veh_passenger" depart="75.00" departLane="best" from="681064714#4" to="52948944#4"/>
    <trip id="veh101" type="veh_passenger" depart="75.75" departLane="best" from="46678147#6" to="-32799484#0"/>
    <trip id="veh102" type="veh_passenger" depart="76.50" departLane="best" from="20896961#1" to="-453523521#0"/>
    <trip id="veh103" type="veh_passenger" depart="77.25" departLane="best" from="165073235#6" to="-20182934#6"/>
    <trip id="veh104" type="veh_passenger" depart="78.00" departLane="best" from="16002389#2" to="776650852#6"/>
    <trip id="veh105" type="veh_passenger" depart="78.75" departLane="best" from="-46620330#10" to="45571059#2"/>
    <trip id="veh106" type="veh_passenger" depart="79.50" departLane="best" from="20226984#1" to="199124188"/>
    <trip id="veh107" type="veh_passenger" depart="80.25" departLane="best" from="607074465#0" to="828600790#7"/>
    <trip id="veh108" type="veh_passenger" depart="81.00" departLane="best" from="237298379#4" to="451065768"/>
    <trip id="veh109" type="veh_passenger" depart="81.75" departLane="best" from="-27176148#9" to="-540078867#4"/>
    <trip id="veh110" type="veh_passenger" depart="82.50" departLane="best" from="680965931#1" to="26929345#1"/>
    <trip id="veh111" type="veh_passenger" depart="83.25" departLane="best" from="22910567#13" to="453511910"/>
    <trip id="veh112" type="veh_passenger" depart="84.00" departLane="best" from="-19944766#8" to="27175962#1"/>
    <trip id="veh113" type="veh_passenger" depart="84.75" departLane="best" from="21821043#0" to="46686774"/>
    <trip id="veh114" type="veh_passenger" depart="85.50" departLane="best" from="-27208546#0" to="62154689#0"/>
    <trip id="veh115" type="veh_passenger" depart="86.25" departLane="best" from="-20834397#2" to="-38742080#11"/>
    <trip id="veh116" type="veh_passenger" depart="87.00" departLane="best" from="27208821#2" to="400634986#0"/>
    <trip id="veh117" type="veh_passenger" depart="87.75" departLane="best" from="-45570272#1" to="-22915715#1"/>
    <trip id="veh118" type="veh_passenger" depart="88.50" departLane="best" from="47569719#1" to="-463889832#1"/>
    <trip id="veh119" type="veh_passenger" depart="89.25" departLane="best" from="27208541#6" to="32799293"/>
    <trip id="veh120" type="veh_passenger" depart="90.00" departLane="best" from="182810003#2" to="27175515#4"/>
    <trip id="veh121" type="veh_passenger" depart="90.75" departLane="best" from="22884734#5" to="550525644#0"/>
    <trip id="veh122" type="veh_passenger" depart="91.50" departLane="best" from="-422420305#14" to="449661661#9"/>
    <trip id="veh123" type="veh_passenger" depart="92.25" departLane="best" from="-45573715" to="165215460#6"/>
    <trip id="veh124" type="veh_passenger" depart="93.00" departLane="best" from="393666590#1" to="-555505970#30"/>
    <trip id="veh125" type="veh_passenger" depart="93.75" departLane="best" from="-562724552#3" to="453535384"/>
    <trip id="veh126" type="veh_passenger" depart="94.50" departLane="best" from="-20444807#1" to="20443208#2"/>
    <trip id="veh127" type="veh_passenger" depart="95.25" departLane="best" from="92352267#2" to="83895940#5"/>
    <trip id="veh128" type="veh_passenger" depart="96.00" departLane="best" from="-20508411#0" to="-453506264#3"/>
    <trip id="veh130" type="veh_passenger" depart="97.50" departLane="best" departSpeed="max" from="47471852#0" to="47471515#2"/>
    <trip id="veh131" type="veh_passenger" depart="98.25" departLane="best" from="13682376#0" to="-29257759#4"/>
    <trip id="veh132" type="veh_passenger" depart="99.00" departLane="best" from="464725244" to="436216510#2"/>
    <trip id="veh133" type="veh_passenger" depart="99.75" departLane="best" from="300414148#0" to="786923345#2"/>
    <trip id="veh134" type="veh_passenger" depart="100.50" departLane="best" from="367854751#7" to="-110996412#1"/>
    <trip id="veh135" type="veh_passenger" depart="101.25" departLane="best" from="462495283#0" to="-555004444#3"/>
    <trip id="veh136" type="veh_passenger" depart="102.00" departLane="best" from="37891137#6" to="560717652"/>
    <trip id="veh137" type="veh_passenger" depart="102.75" departLane="best" departSpeed="max" from="-25101272" to="-22910439"/>
    <trip id="veh138" type="veh_passenger" depart="103.50" departLane="best" from="-22884732" to="24535423#1"/>
    <trip id="veh139" type="veh_passenger" depart="104.25" departLane="best" from="-46686861" to="29368614#1"/>
    <trip id="veh140" type="veh_passenger" depart="105.00" departLane="best" from="442655100#0" to="-437150349#2"/>
    <trip id="veh141" type="veh_passenger" depart="105.75" departLane="best" from="331907543#3" to="-46689046"/>
    <trip id="veh142" type="veh_passenger" depart="106.50" departLane="best" from="20907177#0" to="48423989#3"/>
    <trip id="veh143" type="veh_passenger" depart="107.25" departLane="best" from="466597407" to="-21895472#0"/>
    <trip id="veh144" type="veh_passenger" depart="108.00" departLane="best" from="184778981#5" to="-47471354#1"/>
    <trip id="veh145" type="veh_passenger" depart="108.75" departLane="best" from="-110166927#0" to="455054978#1"/>
    <trip id="veh146" type="veh_passenger" depart="109.50" departLane="best" from="338841059#3" to="-46686961"/>
    <trip id="veh147" type="veh_passenger" depart="110.25" departLane="best" from="453274977#1" to="241807081"/>
    <trip id="veh148" type="veh_passenger" depart="111.00" departLane="best" from="191409073#3" to="-112840730"/>
    <trip id="veh149" type="veh_passenger" depart="111.75" departLane="best" from="-20569501#2" to="475083749"/>
    <trip id="veh151" type="veh_passenger" depart="113.25" departLane="best" from="464907154" to="27127151#0"/>
    <trip id="veh152" type="veh_passenger" depart="114.00" departLane="best" from="-26699202#4" to="-241807079#3"/>
    <trip id="veh153" type="veh_passenger" depart="114.75" departLane="best" from="-538851396#1" to="47971521#1"/>
    <trip id="veh154" type="veh_passenger" depart="115.50" departLane="best" from="45796613" to="46765991#5"/>
    <trip id="veh155" type="veh_passenger" depart="116.25" departLane="best" from="47919146#1" to="-452652524"/>
    <trip id="veh156" type="veh_passenger" depart="117.00" departLane="best" from="-462349332" to="-22822584"/>
    <trip id="veh157" type="veh_passenger" depart="117.75" departLane="best" from="455264722#4" to="475297463"/>
    <trip id="veh158" type="veh_passenger" depart="118.50" departLane="best" from="165213078" to="32799606"/>
    <trip id="veh159" type="veh_passenger" depart="119.25" departLane="best" from="-27175877" to="540069794"/>
    <trip id="veh160" type="veh_passenger" depart="120.00" departLane="best" from="471419147#4" to="721987848#0"/>
    <trip id="veh161" type="veh_passenger" depart="120.75" departLane="best" from="460937155#3" to="474827923#1"/>
    <trip id="veh162" type="veh_passenger" depart="121.50" departLane="best" from="-157716066#7" to="453265895#16"/>
    <trip id="veh163" type="veh_passenger" depart="122.25" departLane="best" from="-822237462#1" to="542817482#2"/>
    <trip id="veh164" type="veh_passenger" depart="123.00" departLane="best" from="459835304" to="471492590"/>
    <trip id="veh165" type="veh_passenger" depart="123.75" departLane="best" from="460937155#0" to="-471713813#0"/>
    <trip id="veh166" type="veh_passenger" depart="124.50" departLane="best" from="455713041#1" to="-22892187#1"/>
    <trip id="veh167" type="veh_passenger" depart="125.25" departLane="best" departSpeed="max" from="47466931" to="46699747#0"/>
    <trip id="veh168" type="veh_passenger" depart="126.00" departLane="best" from="-453495748#8" to="462591695#2"/>
    <trip id="veh169" type="veh_passenger" depart="126.75" departLane="best" from="20318107" to="-592041104#0"/>
    <trip id="veh170" type="veh_passenger" depart="127.50" departLane="best" from="45795930#10" to="-45572879#7"/>
    <trip id="veh171" type="veh_passenger" depart="128.25" departLane="best" departSpeed="max" from="-152517126#12" to="-40662024#1"/>
    <trip id="veh172" type="veh_passenger" depart="129.00" departLane="best" from="-773796987#0" to="471496342"/>
    <trip id="veh173" type="veh_passenger" depart="129.75" departLane="best" from="678887672#1" to="-474852887"/>
    <trip id="veh174" type="veh_passenger" depart="130.50" departLane="best" from="350501229#0" to="165325225#0"/>
    <trip id="veh175" type="veh_passenger" depart="131.25" departLane="best" from="734149397#0" to="22915607#2"/>
    <trip id="veh176" type="veh_passenger" depart="132.00" departLane="best" from="555505989#1" to="-22910431#5"/>
    <trip id="veh177" type="veh_passenger" depart="132.75" departLane="best" from="683402656#2" to="-360575548#1"/>
    <trip id="veh178" type="veh_passenger" depart="133.50" departLane="best" from="635890142" to="-467118043#2"/>
    <trip id="veh179" type="veh_passenger" depart="134.25" departLane="best" from="-22891695" to="20186988"/>
    <trip id="veh180" type="veh_passenger" depart="135.00" departLane="best" from="452069030" to="-727865487#1"/>
    <trip id="veh181" type="veh_passenger" depart="135.75" departLane="best" from="28755558#28" to="22884374#2"/>
    <trip id="veh182" type="veh_passenger" depart="136.50" departLane="best" from="164759201#7" to="26710586#4"/>
    <trip id="veh183" type="veh_passenger" depart="137.25" departLane="best" from="-463835931#0" to="436510238#2"/>
    <trip id="veh184" type="veh_passenger" depart="138.00" departLane="best" from="-106665039#14" to="52732454#7"/>
    <trip id="veh185" type="veh_passenger" depart="138.75" departLane="best" from="22909951" to="451896828"/>
    <trip id="veh186" type="veh_passenger" depart="139.50" departLane="best" from="453281246#0" to="393872226#1"/>
    <trip id="veh187" type="veh_passenger" depart="140.25" departLane="best" from="127570933#1" to="-20441257#7"/>
    <trip id="veh189" type="veh_passenger" depart="141.75" departLane="best" from="-561441970#0" to="46678371#2"/>
    <trip id="veh190" type="veh_passenger" depart="142.50" departLane="best" from="449692294" to="-555505985#18"/>
    <trip id="veh191" type="veh_passenger" depart="143.25" departLane="best" from="-542817483#1" to="182810269#2"/>
    <trip id="veh192" type="veh_passenger" depart="144.00" departLane="best" from="165085301#2" to="-535385929#3"/>
    <trip id="veh193" type="veh_passenger" depart="144.75" departLane="best" from="-23026638#0" to="19892255#16"/>
    <trip id="veh194" type="veh_passenger" depart="145.50" departLane="best" from="560960814#0" to="403491817#5"/>
    <trip id="veh195" type="veh_passenger" depart="146.25" departLane="best" from="48160804#0" to="32391919#1"/>
    <trip id="veh196" type="veh_passenger" depart="147.00" departLane="best" departSpeed="max" from="-48678908" to="237848508#1"/>
    <trip id="veh197" type="veh_passenger" depart="147.75" departLane="best" from="-102601063#12" to="-48424844#2"/>
    <trip id="veh198" type="veh_passenger" depart="148.50" departLane="best" from="197423172#7" to="26987187#2"/>
    <trip id="veh199" type="veh_passenger" depart="149.25" departLane="best" from="36857809#4" to="205578416#7"/>
    <trip id="veh200" type="veh_passenger" depart="150.00" departLane="best" departSpeed="max" from="20112455#0" to="-453522962"/>
    <trip id="veh201" type="veh_passenger" depart="150.75" departLane="best" from="20448125#1" to="48114965"/>
    <trip id="veh202" type="veh_passenger" depart="151.50" departLane="best" from="45796254" to="-330719427#1"/>
    <trip id="veh203" type="veh_passenger" depart="152.25" departLane="best" from="-20910574#0" to="22891923#5"/>
    <trip id="veh204" type="veh_passenger" depart="153.00" departLane="best" from="330720150#1" to="111614531#1"/>
    <trip id="veh205" type="veh_passenger" depart="153.75" departLane="best" from="462578220" to="453528896#24"/>
    <trip id="veh206" type="veh_passenger" depart="154.50" departLane="best" from="39368333" to="-455699697"/>
    <trip id="veh207" type="veh_passenger" depart="155.25" departLane="best" departSpeed="max" from="-40294466#1" to="-157802497#2"/>
    <trip id="veh208" type="veh_passenger" depart="156.00" departLane="best" from="-460514535" to="20904775#2"/>
    <trip id="veh209" type="veh_passenger" depart="156.75" departLane="best" from="46678355#0" to="-205572168#5"/>
    <trip id="veh210" type="veh_passenger" depart="157.50" departLane="best" from="170996011" to="333889806#1"/>
    <trip id="veh211" type="veh_passenger" depart="158.25" departLane="best" from="-38742507#1" to="43191404#1"/>
    <trip id="veh212" type="veh_passenger" depart="159.00" departLane="best" from="21019647#19" to="-463836596#2"/>
    <trip id="veh213" type="veh_passenger" depart="159.75" departLane="best" from="370280104#8" to="-110406911#1"/>
    <trip id="veh214" type="veh_passenger" depart="160.50" departLane="best" from="453511907#30" to="454888144#2"/>
    <trip id="veh215" type="veh_passenger" depart="161.25" departLane="best" from="-22884605#7" to="19937696#6"/>
    <trip id="veh216" type="veh_passenger" depart="162.00" departLane="best" from="-32818305#2" to="607207176#1"/>
    <trip id="veh217" type="veh_passenger" depart="162.75" departLane="best" from="22790758#3" to="-185081191#15"/>
    <trip id="veh218" type="veh_passenger" depart="163.50" departLane="best" from="-462287959#1" to="46679973#5"/>
    <trip id="veh219" type="veh_passenger" depart="164.25" departLane="best" from="202340821" to="460020843"/>
    <trip id="veh220" type="veh_passenger" depart="165.00" departLane="best" from="38742503#4" to="792484722#0"/>
    <trip id="veh221" type="veh_passenger" depart="165.75" departLane="best" from="27209068#0" to="583576903"/>
    <trip id="veh222" type="veh_passenger" depart="166.50" departLane="best" from="476042090#0" to="313639754"/>
    <trip id="veh223" type="veh_passenger" depart="167.25" departLane="best" from="449631297#0" to="22775148#1"/>
    <trip id="veh224" type="veh_passenger" depart="168.00" departLane="best" from="464090412#5" to="237848506#1"/>
    <trip id="veh225" type="veh_passenger" depart="168.75" departLane="best" from="477802079#1" to="453488504#0"/>
    <trip id="veh226" type="veh_passenger" depart="169.50" departLane="best" from="20510328#0" to="-46680134"/>
    <trip id="veh227" type="veh_passenger" depart="170.25" departLane="best" from="-461136116#1" to="35152282#2"/>
    <trip id="veh228" type="veh_passenger" depart="171.00" departLane="best" from="453999957" to="22894672"/>
    <trip id="veh229" type="veh_passenger" depart="171.75" departLane="best" from="32818214" to="-47470920#1"/>
    <trip id="veh230" type="veh_passenger" depart="172.50" departLane="best" from="-20636379#10" to="-48114721#8"/>
    <trip id="veh231" type="veh_passenger" depart="173.25" departLane="best" from="-46686629" to="-822237466#25"/>
    <trip id="veh232" type="veh_passenger" depart="174.00" departLane="best" from="22910187#1" to="-26140174#3"/>
    <trip id="veh233" type="veh_passenger" depart="174.75" departLane="best" from="-455069114" to="428978767"/>
    <trip id="veh234" type="veh_passenger" depart="175.50" departLane="best" from="436207105#2" to="-20296270#8"/>
    <trip id="veh235" type="veh_passenger" depart="176.25" departLane="best" from="165215458#0" to="23027140#1"/>
    <trip id="veh236" type="veh_passenger" depart="177.00" departLane="best" from="174247332#6" to="-452044777#0"/>
    <trip id="veh237" type="veh_passenger" depart="177.75" departLane="best" from="182810269#7" to="48422510#1"/>
    <trip id="veh238" type="veh_passenger" depart="178.50" departLane="best" from="26821031#2" to="430830042#0"/>
    <trip id="veh239" type="veh_passenger" depart="179.25" departLane="best" departSpeed="max" from="46688842#0" to="454241504"/>
    <trip id="veh240" type="veh_passenger" depart="180.00" departLane="best" from="163592278#1" to="-110558543#0"/>
    <trip id="veh241" type="veh_passenger" depart="180.75" departLane="best" from="11392948#6" to="453703522#2"/>
    <trip id="veh242" type="veh_passenger" depart="181.50" departLane="best" from="46686638" to="59877180#1"/>
    <trip id="veh243" type="veh_passenger" depart="182.25" departLane="best" from="182703354#2" to="453511907#21"/>
    <trip id="veh244" type="veh_passenger" depart="183.00" departLane="best" from="22915624#0" to="292819286#1"/>
    <trip id="veh245" type="veh_passenger" depart="183.75" departLane="best" from="-452693113" to="-454236961#0"/>
    <trip id="veh246" type="veh_passenger" depart="184.50" departLane="best" from="19935412" to="-164759199#3"/>
    <trip id="veh247" type="veh_passenger" depart="185.25" departLane="best" from="103896396#0" to="40662014#0"/>
    <trip id="veh248" type="veh_passenger" depart="186.00" departLane="best" from="165090603#6" to="-32799198#2"/>
    <trip id="veh249" type="veh_passenger" depart="186.75" departLane="best" from="20441241#4" to="-24221231#1"/>
    <trip id="veh250" type="veh_passenger" depart="187.50" departLane="best" from="32792141#4" to="-164612947"/>
    <trip id="veh251" type="veh_passenger" depart="188.25" departLane="best" from="164864002#8" to="25831130"/>
    <trip id="veh252" type="veh_passenger" depart="189.00" departLane="best" from="-16424111" to="360586248#6"/>
    <trip id="veh253" type="veh_passenger" depart="189.75" departLane="best" from="-25167184#3" to="20448122#2"/>
    <trip id="veh254" type="veh_passenger" depart="190.50" departLane="best" from="-184514710#0" to="164828570#2"/>
    <trip id="veh255" type="veh_passenger" depart="191.25" departLane="best" from="-436352917#1" to="107998613#8"/>
    <trip id="veh256" type="veh_passenger" depart="192.00" departLane="best" from="453745828#0" to="164828571"/>
    <trip id="veh257" type="veh_passenger" depart="192.75" departLane="best" from="453514233" to="464735543#0"/>