<?xml version="1.0" encoding="UTF-8"?>

<!-- generated on 09/28/20 11:14:10 by Eclipse SUMO netedit Version 1.6.0
<configuration xmlns:xsi="http://www.w3.org/2001/XMLSchema-instance" xsi:noNamespaceSchemaLocation="http://sumo.dlr.de/xsd/netconvertConfiguration.xsd">

    <input>
        <sumo-net-file value="C:\Users\epicb\Documents\GitHub\SumoLachineArea\ChargingTest\test.net.xml"/>
    </input>

    <output>
        <output-file value="C:\Users\epicb\Documents\GitHub\SumoLachineArea\ChargingTest\test.net.xml"/>
        <output.street-names value="true"/>
    </output>

    <processing>
        <geometry.min-radius.fix.railways value="false"/>
        <geometry.max-grade.fix value="false"/>
        <offset.disable-normalization value="true"/>
        <lefthand value="false"/>
    </processing>

    <junctions>
        <no-internal-links value="false"/>
        <no-turnarounds value="true"/>
        <junctions.corner-detail value="5"/>
        <junctions.limit-turn-speed value="5.5"/>
        <rectangular-lane-cut value="false"/>
    </junctions>

    <pedestrian>
        <walkingareas value="true"/>
    </pedestrian>

    <netedit>
        <additional-files value="C:\Users\epicb\Documents\GitHub\SumoLachineArea\ChargingTest\bus.add.xml"/>
    </netedit>

    <report>
        <aggregate-warnings value="5"/>
    </report>

</configuration>
-->

<additional xmlns:xsi="http://www.w3.org/2001/XMLSchema-instance" xsi:noNamespaceSchemaLocation="http://sumo.dlr.de/xsd/additional_file.xsd">
    <busStop id="busStop_-120486714#11_0_8" lane="-120486714#11_0" startPos="44.67" endPos="54.67"/>
    <busStop id="busStop_-25166289#3_0_5" lane="-25166289#3_0" startPos="190.28" endPos="200.28"/>
    <busStop id="busStop_-25166364#1_0_7" lane="-25166364#1_0" startPos="0.00" endPos="202.03"/>
    <busStop id="busStop_120486714#0_0_0" lane="120486714#0_0" startPos="38.19" endPos="48.19" parkingLength="5.00"/>
    <busStop id="busStop_120486714#1_0_1" lane="120486714#1_0" startPos="9.53" endPos="19.53" parkingLength="15.00"/>
    <busStop id="busStop_361991757#12_0_4" lane="361991757#12_0" startPos="0.00" endPos="60.55"/>
    <busStop id="busStop_361991757#2_0_2" lane="361991757#2_0" startPos="116.06" endPos="126.06" lines="asd"/>
    <busStop id="busStop_361991757#5_0_3" lane="361991757#5_0" startPos="37.98" endPos="47.98"/>
    <busStop id="busStop_822252084#1_0_6" lane="822252084#1_0" startPos="0.00" endPos="58.54"/>
</additional>
