<?xml version="1.0" encoding="UTF-8"?>

<!-- generated on 08/26/20 15:26:35 by Eclipse SUMO netedit Version 1.6.0
<configuration xmlns:xsi="http://www.w3.org/2001/XMLSchema-instance" xsi:noNamespaceSchemaLocation="http://sumo.dlr.de/xsd/netconvertConfiguration.xsd">

    <input>
        <sumo-net-file value="C:\Users\epicb\Documents\GitHub\SumoLachineArea\ChargingTest\test.net.xml"/>
    </input>

    <output>
        <output-file value="C:\Users\epicb\Documents\GitHub\SumoLachineArea\ChargingTest\test.net.xml"/>
        <output.street-names value="true"/>
    </output>

    <processing>
        <geometry.min-radius.fix.railways value="false"/>
        <geometry.max-grade.fix value="false"/>
        <offset.disable-normalization value="true"/>
        <lefthand value="false"/>
    </processing>

    <junctions>
        <no-turnarounds value="true"/>
        <junctions.corner-detail value="5"/>
        <junctions.limit-turn-speed value="5.5"/>
        <rectangular-lane-cut value="false"/>
    </junctions>

    <pedestrian>
        <walkingareas value="true"/>
    </pedestrian>

    <netedit>
        <additional-files value="C:\Users\epicb\Documents\GitHub\SumoLachineArea\ChargingTest\charge.add.xml"/>
    </netedit>

    <report>
        <aggregate-warnings value="5"/>
    </report>

</configuration>
-->

<additional xmlns:xsi="http://www.w3.org/2001/XMLSchema-instance" xsi:noNamespaceSchemaLocation="http://sumo.dlr.de/xsd/additional_file.xsd">
    <chargingStation id="chargingStation_25123763#7_0_3" lane="25123763#7_0" startPos="200.32" endPos="211.32" power="36000.00" efficiency="1.00"/>
    <chargingStation id="chargingStation_25166951_0_2" lane="25166951_0" startPos="62.71" endPos="73.71" power="36000.00" efficiency="1.00"/>
    <chargingStation id="chargingStation_422420305#6_0_1" lane="422420305#6_0" startPos="61.38" endPos="71.38" power="36000.00" efficiency="1.00"/>
    <chargingStation id="chargingStation_566210472#8_0_1" lane="566210472#8_0" startPos="33.41" endPos="44.41" power="36000.00" efficiency="1.00"/>
</additional>
