<?xml version="1.0" encoding="UTF-8"?>

<!-- generated on 08/12/20 14:09:09 by Eclipse SUMO GUI Version 1.6.0
-->

<configuration xmlns:xsi="http://www.w3.org/2001/XMLSchema-instance" xsi:noNamespaceSchemaLocation="http://sumo.dlr.de/xsd/sumoConfiguration.xsd">

    <input>
        <net-file value="C:\Users\epicb\Documents\GitHub\SumoLachineArea\ChargingTest\test.net.xml"/>
        <route-files value="C:\Users\epicb\Documents\GitHub\SumoLachineArea\ChargingTest\evehicle.rou.xml"/>
        <additional-files value="C:\Users\epicb\Documents\GitHub\SumoLachineArea\ChargingTest\charge.add.xml"/>
    </input>
    <output>
        <battery-output value="Outputs/battery.xml"/>
        <chargingstations-output value="Outputs/chargingstations.xml"/>
    </output>
</configuration>
