<routes><vType id="vType_BUS" vClass="bus" length="10.00" /><vehicle id="bus_0" type="vType_BUS" route="busRoute_100068" depart="0.00" /><vehicle id="bus_2" type="vType_BUS" route="busRoute_100067" depart="0.00" /><vehicle id="bus_4" type="vType_BUS" route="busRoute_110129" depart="0.00" /><vehicle id="bus_6" type="vType_BUS" route="busRoute_110131" depart="0.00" /><vehicle id="bus_8" type="vType_BUS" route="busRoute_110130" depart="0.00" /><vehicle id="bus_10" type="vType_BUS" route="busRoute_110128" depart="0.00" /><vehicle id="bus_12" type="vType_BUS" route="busRoute_120090" depart="0.00" /><vehicle id="bus_14" type="vType_BUS" route="busRoute_120089" depart="0.00" /><vehicle id="bus_16" type="vType_BUS" route="busRoute_130022" depart="0.00" /><vehicle id="bus_18" type="vType_BUS" route="busRoute_130023" depart="0.00" /><vehicle id="bus_20" type="vType_BUS" route="busRoute_140060" depart="0.00" /><vehicle id="bus_22" type="vType_BUS" route="busRoute_140059" depart="0.00" /><vehicle id="bus_24" type="vType_BUS" route="busRoute_150073" depart="0.00" /><vehicle id="bus_26" type="vType_BUS" route="busRoute_150074" depart="0.00" /><vehicle id="bus_28" type="vType_BUS" route="busRoute_160085" depart="0.00" /><vehicle id="bus_30" type="vType_BUS" route="busRoute_160086" depart="0.00" /><vehicle id="bus_32" type="vType_BUS" route="busRoute_170088" depart="0.00" /><vehicle id="bus_34" type="vType_BUS" route="busRoute_170089" depart="0.00" /><vehicle id="bus_36" type="vType_BUS" route="busRoute_180216" depart="0.00" /><vehicle id="bus_38" type="vType_BUS" route="busRoute_180215" depart="0.00" /><vehicle id="bus_40" type="vType_BUS" route="busRoute_180213" depart="0.00" /><vehicle id="bus_42" type="vType_BUS" route="busRoute_190030" depart="0.00" /><vehicle id="bus_44" type="vType_BUS" route="busRoute_190033" depart="0.00" /><vehicle id="bus_46" type="vType_BUS" route="busRoute_190034" depart="0.00" /><vehicle id="bus_48" type="vType_BUS" route="busRoute_190035" depart="0.00" /><vehicle id="bus_50" type="vType_BUS" route="busRoute_210024" depart="0.00" /><vehicle id="bus_52" type="vType_BUS" route="busRoute_210025" depart="0.00" /><vehicle id="bus_54" type="vType_BUS" route="busRoute_220061" depart="0.00" /><vehicle id="bus_56" type="vType_BUS" route="busRoute_220063" depart="0.00" /><vehicle id="bus_58" type="vType_BUS" route="busRoute_220062" depart="0.00" /><vehicle id="bus_60" type="vType_BUS" route="busRoute_220064" depart="0.00" /><vehicle id="bus_62" type="vType_BUS" route="busRoute_240172" depart="0.00" /><vehicle id="bus_64" type="vType_BUS" route="busRoute_240175" depart="0.00" /><vehicle id="bus_66" type="vType_BUS" route="busRoute_240176" depart="0.00" /><vehicle id="bus_68" type="vType_BUS" route="busRoute_240168" depart="0.00" /><vehicle id="bus_70" type="vType_BUS" route="busRoute_250049" depart="0.00" /><vehicle id="bus_72" type="vType_BUS" route="busRoute_250048" depart="0.00" /><vehicle id="bus_74" type="vType_BUS" route="busRoute_260097" depart="0.00" /><vehicle id="bus_76" type="vType_BUS" route="busRoute_260100" depart="0.00" /><vehicle id="bus_78" type="vType_BUS" route="busRoute_260099" depart="0.00" /><vehicle id="bus_80" type="vType_BUS" route="busRoute_270108" depart="0.00" /><vehicle id="bus_82" type="vType_BUS" route="busRoute_270106" depart="0.00" /><vehicle id="bus_84" type="vType_BUS" route="busRoute_280899" depart="0.00" /><vehicle id="bus_86" type="vType_BUS" route="busRoute_280903" depart="0.00" /><vehicle id="bus_88" type="vType_BUS" route="busRoute_290082" depart="0.00" /><vehicle id="bus_90" type="vType_BUS" route="busRoute_290081" depart="0.00" /><vehicle id="bus_92" type="vType_BUS" route="busRoute_290080" depart="0.00" /><vehicle id="bus_94" type="vType_BUS" route="busRoute_300077" depart="0.00" /><vehicle id="bus_96" type="vType_BUS" route="busRoute_300076" depart="0.00" /><vehicle id="bus_98" type="vType_BUS" route="busRoute_310060" depart="0.00" /><vehicle id="bus_100" type="vType_BUS" route="busRoute_310059" depart="0.00" /><vehicle id="bus_102" type="vType_BUS" route="busRoute_320151" depart="0.00" /><vehicle id="bus_104" type="vType_BUS" route="busRoute_320150" depart="0.00" /><vehicle id="bus_106" type="vType_BUS" route="busRoute_330244" depart="0.00" /><vehicle id="bus_108" type="vType_BUS" route="busRoute_330243" depart="0.00" /><vehicle id="bus_110" type="vType_BUS" route="busRoute_330240" depart="0.00" /><vehicle id="bus_112" type="vType_BUS" route="busRoute_330237" depart="0.00" /><vehicle id="bus_114" type="vType_BUS" route="busRoute_330247" depart="0.00" /><vehicle id="bus_116" type="vType_BUS" route="busRoute_340092" depart="0.00" /><vehicle id="bus_118" type="vType_BUS" route="busRoute_340094" depart="0.00" /><vehicle id="bus_120" type="vType_BUS" route="busRoute_350010" depart="0.00" /><vehicle id="bus_122" type="vType_BUS" route="busRoute_350009" depart="0.00" /><vehicle id="bus_124" type="vType_BUS" route="busRoute_360127" depart="0.00" /><vehicle id="bus_126" type="vType_BUS" route="busRoute_360129" depart="0.00" /><vehicle id="bus_128" type="vType_BUS" route="busRoute_360128" depart="0.00" /><vehicle id="bus_130" type="vType_BUS" route="busRoute_370130" depart="0.00" /><vehicle id="bus_132" type="vType_BUS" route="busRoute_370127" depart="0.00" /><vehicle id="bus_134" type="vType_BUS" route="busRoute_370131" depart="0.00" /><vehicle id="bus_136" type="vType_BUS" route="busRoute_370132" depart="0.00" /><vehicle id="bus_138" type="vType_BUS" route="busRoute_390048" depart="0.00" /><vehicle id="bus_140" type="vType_BUS" route="busRoute_390046" depart="0.00" /><vehicle id="bus_142" type="vType_BUS" route="busRoute_390051" depart="0.00" /><vehicle id="bus_144" type="vType_BUS" route="busRoute_390049" depart="0.00" /><vehicle id="bus_146" type="vType_BUS" route="busRoute_400071" depart="0.00" /><vehicle id="bus_148" type="vType_BUS" route="busRoute_400070" depart="0.00" /><vehicle id="bus_150" type="vType_BUS" route="busRoute_410310" depart="0.00" /><vehicle id="bus_152" type="vType_BUS" route="busRoute_410311" depart="0.00" /><vehicle id="bus_154" type="vType_BUS" route="busRoute_430191" depart="0.00" /><vehicle id="bus_156" type="vType_BUS" route="busRoute_430193" depart="0.00" /><vehicle id="bus_158" type="vType_BUS" route="busRoute_440163" depart="0.00" /><vehicle id="bus_160" type="vType_BUS" route="busRoute_440162" depart="0.00" /><vehicle id="bus_162" type="vType_BUS" route="busRoute_450143" depart="0.00" /><vehicle id="bus_164" type="vType_BUS" route="busRoute_450158" depart="0.00" /><vehicle id="bus_166" type="vType_BUS" route="busRoute_450159" depart="0.00" /><vehicle id="bus_168" type="vType_BUS" route="busRoute_460056" depart="0.00" /><vehicle id="bus_170" type="vType_BUS" route="busRoute_460052" depart="0.00" /><vehicle id="bus_172" type="vType_BUS" route="busRoute_460051" depart="0.00" /><vehicle id="bus_174" type="vType_BUS" route="busRoute_470105" depart="0.00" /><vehicle id="bus_176" type="vType_BUS" route="busRoute_470103" depart="0.00" /><vehicle id="bus_178" type="vType_BUS" route="busRoute_480394" depart="0.00" /><vehicle id="bus_180" type="vType_BUS" route="busRoute_480397" depart="0.00" /><vehicle id="bus_182" type="vType_BUS" route="busRoute_480395" depart="0.00" /><vehicle id="bus_184" type="vType_BUS" route="busRoute_480396" depart="0.00" /><vehicle id="bus_186" type="vType_BUS" route="busRoute_490333" depart="0.00" /><vehicle id="bus_188" type="vType_BUS" route="busRoute_490330" depart="0.00" /><vehicle id="bus_190" type="vType_BUS" route="busRoute_490329" depart="0.00" /><vehicle id="bus_192" type="vType_BUS" route="busRoute_490328" depart="0.00" /><vehicle id="bus_194" type="vType_BUS" route="busRoute_490324" depart="0.00" /><vehicle id="bus_196" type="vType_BUS" route="busRoute_490326" depart="0.00" /><vehicle id="bus_198" type="vType_BUS" route="busRoute_510179" depart="0.00" /><vehicle id="bus_200" type="vType_BUS" route="busRoute_510185" depart="0.00" /><vehicle id="bus_202" type="vType_BUS" route="busRoute_510186" depart="0.00" /><vehicle id="bus_204" type="vType_BUS" route="busRoute_510191" depart="0.00" /><vehicle id="bus_206" type="vType_BUS" route="busRoute_520075" depart="0.00" /><vehicle id="bus_208" type="vType_BUS" route="busRoute_520077" depart="0.00" /><vehicle id="bus_210" type="vType_BUS" route="busRoute_520074" depart="0.00" /><vehicle id="bus_212" type="vType_BUS" route="busRoute_520076" depart="0.00" /><vehicle id="bus_214" type="vType_BUS" route="busRoute_540140" depart="0.00" /><vehicle id="bus_216" type="vType_BUS" route="busRoute_540139" depart="0.00" /><vehicle id="bus_218" type="vType_BUS" route="busRoute_540142" depart="0.00" /><vehicle id="bus_220" type="vType_BUS" route="busRoute_540143" depart="0.00" /><vehicle id="bus_222" type="vType_BUS" route="busRoute_550140" depart="0.00" /><vehicle id="bus_224" type="vType_BUS" route="busRoute_550139" depart="0.00" /><vehicle id="bus_226" type="vType_BUS" route="busRoute_570095" depart="0.00" /><vehicle id="bus_228" type="vType_BUS" route="busRoute_570091" depart="0.00" /><vehicle id="bus_230" type="vType_BUS" route="busRoute_580126" depart="0.00" /><vehicle id="bus_232" type="vType_BUS" route="busRoute_580123" depart="0.00" /><vehicle id="bus_234" type="vType_BUS" route="busRoute_610105" depart="0.00" /><vehicle id="bus_236" type="vType_BUS" route="busRoute_610107" depart="0.00" /><vehicle id="bus_238" type="vType_BUS" route="busRoute_630361" depart="0.00" /><vehicle id="bus_240" type="vType_BUS" route="busRoute_630362" depart="0.00" /><vehicle id="bus_242" type="vType_BUS" route="busRoute_640149" depart="0.00" /><vehicle id="bus_244" type="vType_BUS" route="busRoute_640141" depart="0.00" /><vehicle id="bus_246" type="vType_BUS" route="busRoute_660098" depart="0.00" /><vehicle id="bus_248" type="vType_BUS" route="busRoute_660099" depart="0.00" /><vehicle id="bus_250" type="vType_BUS" route="busRoute_660092" depart="0.00" /><vehicle id="bus_252" type="vType_BUS" route="busRoute_660097" depart="0.00" /><vehicle id="bus_254" type="vType_BUS" route="busRoute_670110" depart="0.00" /><vehicle id="bus_256" type="vType_BUS" route="busRoute_670109" depart="0.00" /><vehicle id="bus_258" type="vType_BUS" route="busRoute_680389" depart="0.00" /><vehicle id="bus_260" type="vType_BUS" route="busRoute_680384" depart="0.00" /><vehicle id="bus_262" type="vType_BUS" route="busRoute_680387" depart="0.00" /><vehicle id="bus_264" type="vType_BUS" route="busRoute_680385" depart="0.00" /><vehicle id="bus_266" type="vType_BUS" route="busRoute_680386" depart="0.00" /><vehicle id="bus_268" type="vType_BUS" route="busRoute_680388" depart="0.00" /><vehicle id="bus_270" type="vType_BUS" route="busRoute_690202" depart="0.00" /><vehicle id="bus_272" type="vType_BUS" route="busRoute_690200" depart="0.00" /><vehicle id="bus_274" type="vType_BUS" route="busRoute_690201" depart="0.00" /><vehicle id="bus_276" type="vType_BUS" route="busRoute_700172" depart="0.00" /><vehicle id="bus_278" type="vType_BUS" route="busRoute_700174" depart="0.00" /><vehicle id="bus_280" type="vType_BUS" route="busRoute_700183" depart="0.00" /><vehicle id="bus_282" type="vType_BUS" route="busRoute_700182" depart="0.00" /><vehicle id="bus_284" type="vType_BUS" route="busRoute_700181" depart="0.00" /><vehicle id="bus_286" type="vType_BUS" route="busRoute_710072" depart="0.00" /><vehicle id="bus_288" type="vType_BUS" route="busRoute_710071" depart="0.00" /><vehicle id="bus_290" type="vType_BUS" route="busRoute_720149" depart="0.00" /><vehicle id="bus_292" type="vType_BUS" route="busRoute_720150" depart="0.00" /><vehicle id="bus_294" type="vType_BUS" route="busRoute_720152" depart="0.00" /><vehicle id="bus_296" type="vType_BUS" route="busRoute_720148" depart="0.00" /><vehicle id="bus_298" type="vType_BUS" route="busRoute_720151" depart="0.00" /><vehicle id="bus_300" type="vType_BUS" route="busRoute_730045" depart="0.00" /><vehicle id="bus_302" type="vType_BUS" route="busRoute_730044" depart="0.00" /><vehicle id="bus_304" type="vType_BUS" route="busRoute_740056" depart="0.00" /><vehicle id="bus_306" type="vType_BUS" route="busRoute_740057" depart="0.00" /><vehicle id="bus_308" type="vType_BUS" route="busRoute_740055" depart="0.00" /><vehicle id="bus_310" type="vType_BUS" route="busRoute_750035" depart="0.00" /><vehicle id="bus_312" type="vType_BUS" route="busRoute_750031" depart="0.00" /><vehicle id="bus_314" type="vType_BUS" route="busRoute_760027" depart="0.00" /><vehicle id="bus_316" type="vType_BUS" route="busRoute_760026" depart="0.00" /><vehicle id="bus_318" type="vType_BUS" route="busRoute_770031" depart="0.00" /><vehicle id="bus_320" type="vType_BUS" route="busRoute_770029" depart="0.00" /><vehicle id="bus_322" type="vType_BUS" route="busRoute_780082" depart="0.00" /><vehicle id="bus_324" type="vType_BUS" route="busRoute_780083" depart="0.00" /><vehicle id="bus_326" type="vType_BUS" route="busRoute_800101" depart="0.00" /><vehicle id="bus_328" type="vType_BUS" route="busRoute_800103" depart="0.00" /><vehicle id="bus_330" type="vType_BUS" route="busRoute_800102" depart="0.00" /><vehicle id="bus_332" type="vType_BUS" route="busRoute_810009" depart="0.00" /><vehicle id="bus_334" type="vType_BUS" route="busRoute_810008" depart="0.00" /><vehicle id="bus_336" type="vType_BUS" route="busRoute_850183" depart="0.00" /><vehicle id="bus_338" type="vType_BUS" route="busRoute_850174" depart="0.00" /><vehicle id="bus_340" type="vType_BUS" route="busRoute_850182" depart="0.00" /><vehicle id="bus_342" type="vType_BUS" route="busRoute_850176" depart="0.00" /><vehicle id="bus_344" type="vType_BUS" route="busRoute_860180" depart="0.00" /><vehicle id="bus_346" type="vType_BUS" route="busRoute_860178" depart="0.00" /><vehicle id="bus_348" type="vType_BUS" route="busRoute_900232" depart="0.00" /><vehicle id="bus_350" type="vType_BUS" route="busRoute_900233" depart="0.00" /><vehicle id="bus_352" type="vType_BUS" route="busRoute_900231" depart="0.00" /><vehicle id="bus_354" type="vType_BUS" route="busRoute_920103" depart="0.00" /><vehicle id="bus_356" type="vType_BUS" route="busRoute_920104" depart="0.00" /><vehicle id="bus_358" type="vType_BUS" route="busRoute_930076" depart="0.00" /><vehicle id="bus_360" type="vType_BUS" route="busRoute_930073" depart="0.00" /><vehicle id="bus_362" type="vType_BUS" route="busRoute_930075" depart="0.00" /><vehicle id="bus_364" type="vType_BUS" route="busRoute_940079" depart="0.00" /><vehicle id="bus_366" type="vType_BUS" route="busRoute_940078" depart="0.00" /><vehicle id="bus_368" type="vType_BUS" route="busRoute_940080" depart="0.00" /><vehicle id="bus_370" type="vType_BUS" route="busRoute_950098" depart="0.00" /><vehicle id="bus_372" type="vType_BUS" route="busRoute_950097" depart="0.00" /><vehicle id="bus_374" type="vType_BUS" route="busRoute_970194" depart="0.00" /><vehicle id="bus_376" type="vType_BUS" route="busRoute_970195" depart="0.00" /><vehicle id="bus_378" type="vType_BUS" route="busRoute_990062" depart="0.00" /><vehicle id="bus_380" type="vType_BUS" route="busRoute_990061" depart="0.00" /><vehicle id="bus_382" type="vType_BUS" route="busRoute_1000224" depart="0.00" /><vehicle id="bus_384" type="vType_BUS" route="busRoute_1000222" depart="0.00" /><vehicle id="bus_386" type="vType_BUS" route="busRoute_1000225" depart="0.00" /><vehicle id="bus_388" type="vType_BUS" route="busRoute_1000223" depart="0.00" /><vehicle id="bus_390" type="vType_BUS" route="busRoute_1010124" depart="0.00" /><vehicle id="bus_392" type="vType_BUS" route="busRoute_1010123" depart="0.00" /><vehicle id="bus_394" type="vType_BUS" route="busRoute_1020075" depart="0.00" /><vehicle id="bus_396" type="vType_BUS" route="busRoute_1020074" depart="0.00" /><vehicle id="bus_398" type="vType_BUS" route="busRoute_1030163" depart="0.00" /><vehicle id="bus_400" type="vType_BUS" route="busRoute_1030165" depart="0.00" /><vehicle id="bus_402" type="vType_BUS" route="busRoute_1040111" depart="0.00" /><vehicle id="bus_404" type="vType_BUS" route="busRoute_1040112" depart="0.00" /><vehicle id="bus_406" type="vType_BUS" route="busRoute_1050145" depart="0.00" /><vehicle id="bus_408" type="vType_BUS" route="busRoute_1050144" depart="0.00" /><vehicle id="bus_410" type="vType_BUS" route="busRoute_1050147" depart="0.00" /><vehicle id="bus_412" type="vType_BUS" route="busRoute_1060126" depart="0.00" /><vehicle id="bus_414" type="vType_BUS" route="busRoute_1060125" depart="0.00" /><vehicle id="bus_416" type="vType_BUS" route="busRoute_1070115" depart="0.00" /><vehicle id="bus_418" type="vType_BUS" route="busRoute_1070117" depart="0.00" /><vehicle id="bus_420" type="vType_BUS" route="busRoute_1070113" depart="0.00" /><vehicle id="bus_422" type="vType_BUS" route="busRoute_1070116" depart="0.00" /><vehicle id="bus_424" type="vType_BUS" route="busRoute_1080071" depart="0.00" /><vehicle id="bus_426" type="vType_BUS" route="busRoute_1080072" depart="0.00" /><vehicle id="bus_428" type="vType_BUS" route="busRoute_1090083" depart="0.00" /><vehicle id="bus_430" type="vType_BUS" route="busRoute_1090085" depart="0.00" /><vehicle id="bus_432" type="vType_BUS" route="busRoute_1100196" depart="0.00" /><vehicle id="bus_434" type="vType_BUS" route="busRoute_1100195" depart="0.00" /><vehicle id="bus_436" type="vType_BUS" route="busRoute_1100192" depart="0.00" /><vehicle id="bus_438" type="vType_BUS" route="busRoute_1120150" depart="0.00" /><vehicle id="bus_440" type="vType_BUS" route="busRoute_1120152" depart="0.00" /><vehicle id="bus_442" type="vType_BUS" route="busRoute_1120154" depart="0.00" /><vehicle id="bus_444" type="vType_BUS" route="busRoute_1130142" depart="0.00" /><vehicle id="bus_446" type="vType_BUS" route="busRoute_1130144" depart="0.00" /><vehicle id="bus_448" type="vType_BUS" route="busRoute_1150056" depart="0.00" /><vehicle id="bus_450" type="vType_BUS" route="busRoute_1150054" depart="0.00" /><vehicle id="bus_452" type="vType_BUS" route="busRoute_1150050" depart="0.00" /><vehicle id="bus_454" type="vType_BUS" route="busRoute_1150057" depart="0.00" /><vehicle id="bus_456" type="vType_BUS" route="busRoute_1160052" depart="0.00" /><vehicle id="bus_458" type="vType_BUS" route="busRoute_1160051" depart="0.00" /><vehicle id="bus_460" type="vType_BUS" route="busRoute_1170071" depart="0.00" /><vehicle id="bus_462" type="vType_BUS" route="busRoute_1170074" depart="0.00" /><vehicle id="bus_464" type="vType_BUS" route="busRoute_1190068" depart="0.00" /><vehicle id="bus_466" type="vType_BUS" route="busRoute_1190069" depart="0.00" /><vehicle id="bus_468" type="vType_BUS" route="busRoute_1210244" depart="0.00" /><vehicle id="bus_470" type="vType_BUS" route="busRoute_1210250" depart="0.00" /><vehicle id="bus_472" type="vType_BUS" route="busRoute_1210245" depart="0.00" /><vehicle id="bus_474" type="vType_BUS" route="busRoute_1230095" depart="0.00" /><vehicle id="bus_476" type="vType_BUS" route="busRoute_1230094" depart="0.00" /><vehicle id="bus_478" type="vType_BUS" route="busRoute_1240125" depart="0.00" /><vehicle id="bus_480" type="vType_BUS" route="busRoute_1240123" depart="0.00" /><vehicle id="bus_482" type="vType_BUS" route="busRoute_1250159" depart="0.00" /><vehicle id="bus_484" type="vType_BUS" route="busRoute_1250161" depart="0.00" /><vehicle id="bus_486" type="vType_BUS" route="busRoute_1250158" depart="0.00" /><vehicle id="bus_488" type="vType_BUS" route="busRoute_1250160" depart="0.00" /><vehicle id="bus_490" type="vType_BUS" route="busRoute_1260042" depart="0.00" /><vehicle id="bus_492" type="vType_BUS" route="busRoute_1260041" depart="0.00" /><vehicle id="bus_494" type="vType_BUS" route="busRoute_1280147" depart="0.00" /><vehicle id="bus_496" type="vType_BUS" route="busRoute_1280146" depart="0.00" /><vehicle id="bus_498" type="vType_BUS" route="busRoute_1290214" depart="0.00" /><vehicle id="bus_500" type="vType_BUS" route="busRoute_1290215" depart="0.00" /><vehicle id="bus_502" type="vType_BUS" route="busRoute_1290206" depart="0.00" /><vehicle id="bus_504" type="vType_BUS" route="busRoute_1290216" depart="0.00" /><vehicle id="bus_506" type="vType_BUS" route="busRoute_1290213" depart="0.00" /><vehicle id="bus_508" type="vType_BUS" route="busRoute_1290212" depart="0.00" /><vehicle id="bus_510" type="vType_BUS" route="busRoute_1310087" depart="0.00" /><vehicle id="bus_512" type="vType_BUS" route="busRoute_1310090" depart="0.00" /><vehicle id="bus_514" type="vType_BUS" route="busRoute_1310088" depart="0.00" /><vehicle id="bus_516" type="vType_BUS" route="busRoute_1310083" depart="0.00" /><vehicle id="bus_518" type="vType_BUS" route="busRoute_1310084" depart="0.00" /><vehicle id="bus_520" type="vType_BUS" route="busRoute_1350073" depart="0.00" /><vehicle id="bus_522" type="vType_BUS" route="busRoute_1350074" depart="0.00" /><vehicle id="bus_524" type="vType_BUS" route="busRoute_1360106" depart="0.00" /><vehicle id="bus_526" type="vType_BUS" route="busRoute_1360097" depart="0.00" /><vehicle id="bus_528" type="vType_BUS" route="busRoute_1380084" depart="0.00" /><vehicle id="bus_530" type="vType_BUS" route="busRoute_1380083" depart="0.00" /><vehicle id="bus_532" type="vType_BUS" route="busRoute_1394364" depart="0.00" /><vehicle id="bus_534" type="vType_BUS" route="busRoute_1394368" depart="0.00" /><vehicle id="bus_536" type="vType_BUS" route="busRoute_1394367" depart="0.00" /><vehicle id="bus_538" type="vType_BUS" route="busRoute_1400126" depart="0.00" /><vehicle id="bus_540" type="vType_BUS" route="busRoute_1400120" depart="0.00" /><vehicle id="bus_542" type="vType_BUS" route="busRoute_1400119" depart="0.00" /><vehicle id="bus_544" type="vType_BUS" route="busRoute_1410192" depart="0.00" /><vehicle id="bus_546" type="vType_BUS" route="busRoute_1410552" depart="0.00" /><vehicle id="bus_548" type="vType_BUS" route="busRoute_1410554" depart="0.00" /><vehicle id="bus_550" type="vType_BUS" route="busRoute_1410553" depart="0.00" /><vehicle id="bus_552" type="vType_BUS" route="busRoute_1440088" depart="0.00" /><vehicle id="bus_554" type="vType_BUS" route="busRoute_1440089" depart="0.00" /><vehicle id="bus_556" type="vType_BUS" route="busRoute_1460120" depart="0.00" /><vehicle id="bus_558" type="vType_BUS" route="busRoute_1460116" depart="0.00" /><vehicle id="bus_560" type="vType_BUS" route="busRoute_1460127" depart="0.00" /><vehicle id="bus_562" type="vType_BUS" route="busRoute_1460126" depart="0.00" /><vehicle id="bus_564" type="vType_BUS" route="busRoute_1460125" depart="0.00" /><vehicle id="bus_566" type="vType_BUS" route="busRoute_1500055" depart="0.00" /><vehicle id="bus_568" type="vType_BUS" route="busRoute_1500053" depart="0.00" /><vehicle id="bus_570" type="vType_BUS" route="busRoute_1600110" depart="0.00" /><vehicle id="bus_572" type="vType_BUS" route="busRoute_1600111" depart="0.00" /><vehicle id="bus_574" type="vType_BUS" route="busRoute_1600112" depart="0.00" /><vehicle id="bus_576" type="vType_BUS" route="busRoute_1610127" depart="0.00" /><vehicle id="bus_578" type="vType_BUS" route="busRoute_1610128" depart="0.00" /><vehicle id="bus_580" type="vType_BUS" route="busRoute_1610129" depart="0.00" /><vehicle id="bus_582" type="vType_BUS" route="busRoute_1620098" depart="0.00" /><vehicle id="bus_584" type="vType_BUS" route="busRoute_1620097" depart="0.00" /><vehicle id="bus_586" type="vType_BUS" route="busRoute_1640144" depart="0.00" /><vehicle id="bus_588" type="vType_BUS" route="busRoute_1640145" depart="0.00" /><vehicle id="bus_590" type="vType_BUS" route="busRoute_1650101" depart="0.00" /><vehicle id="bus_592" type="vType_BUS" route="busRoute_1650100" depart="0.00" /><vehicle id="bus_594" type="vType_BUS" route="busRoute_1660165" depart="0.00" /><vehicle id="bus_596" type="vType_BUS" route="busRoute_1660162" depart="0.00" /><vehicle id="bus_598" type="vType_BUS" route="busRoute_1660166" depart="0.00" /><vehicle id="bus_600" type="vType_BUS" route="busRoute_1660163" depart="0.00" /><vehicle id="bus_602" type="vType_BUS" route="busRoute_1660161" depart="0.00" /><vehicle id="bus_604" type="vType_BUS" route="busRoute_1660164" depart="0.00" /><vehicle id="bus_606" type="vType_BUS" route="busRoute_1680145" depart="0.00" /><vehicle id="bus_608" type="vType_BUS" route="busRoute_1680144" depart="0.00" /><vehicle id="bus_610" type="vType_BUS" route="busRoute_1680142" depart="0.00" /><vehicle id="bus_612" type="vType_BUS" route="busRoute_1680143" depart="0.00" /><vehicle id="bus_614" type="vType_BUS" route="busRoute_1700165" depart="0.00" /><vehicle id="bus_616" type="vType_BUS" route="busRoute_1700166" depart="0.00" /><vehicle id="bus_618" type="vType_BUS" route="busRoute_1710198" depart="0.00" /><vehicle id="bus_620" type="vType_BUS" route="busRoute_1710215" depart="0.00" /><vehicle id="bus_622" type="vType_BUS" route="busRoute_1710214" depart="0.00" /><vehicle id="bus_624" type="vType_BUS" route="busRoute_1710213" depart="0.00" /><vehicle id="bus_626" type="vType_BUS" route="busRoute_1740108" depart="0.00" /><vehicle id="bus_628" type="vType_BUS" route="busRoute_1740102" depart="0.00" /><vehicle id="bus_630" type="vType_BUS" route="busRoute_1750105" depart="0.00" /><vehicle id="bus_632" type="vType_BUS" route="busRoute_1750104" depart="0.00" /><vehicle id="bus_634" type="vType_BUS" route="busRoute_1770130" depart="0.00" /><vehicle id="bus_636" type="vType_BUS" route="busRoute_1770132" depart="0.00" /><vehicle id="bus_638" type="vType_BUS" route="busRoute_1780080" depart="0.00" /><vehicle id="bus_640" type="vType_BUS" route="busRoute_1780079" depart="0.00" /><vehicle id="bus_642" type="vType_BUS" route="busRoute_1790176" depart="0.00" /><vehicle id="bus_644" type="vType_BUS" route="busRoute_1790181" depart="0.00" /><vehicle id="bus_646" type="vType_BUS" route="busRoute_1790180" depart="0.00" /><vehicle id="bus_648" type="vType_BUS" route="busRoute_1800104" depart="0.00" /><vehicle id="bus_650" type="vType_BUS" route="busRoute_1800105" depart="0.00" /><vehicle id="bus_652" type="vType_BUS" route="busRoute_1830086" depart="0.00" /><vehicle id="bus_654" type="vType_BUS" route="busRoute_1830085" depart="0.00" /><vehicle id="bus_656" type="vType_BUS" route="busRoute_1850121" depart="0.00" /><vehicle id="bus_658" type="vType_BUS" route="busRoute_1850123" depart="0.00" /><vehicle id="bus_660" type="vType_BUS" route="busRoute_1850122" depart="0.00" /><vehicle id="bus_662" type="vType_BUS" route="busRoute_1860242" depart="0.00" /><vehicle id="bus_664" type="vType_BUS" route="busRoute_1860249" depart="0.00" /><vehicle id="bus_666" type="vType_BUS" route="busRoute_1860244" depart="0.00" /><vehicle id="bus_668" type="vType_BUS" route="busRoute_1870210" depart="0.00" /><vehicle id="bus_670" type="vType_BUS" route="busRoute_1870211" depart="0.00" /><vehicle id="bus_672" type="vType_BUS" route="busRoute_1870212" depart="0.00" /><vehicle id="bus_674" type="vType_BUS" route="busRoute_1870209" depart="0.00" /><vehicle id="bus_676" type="vType_BUS" route="busRoute_1880100" depart="0.00" /><vehicle id="bus_678" type="vType_BUS" route="busRoute_1880098" depart="0.00" /><vehicle id="bus_680" type="vType_BUS" route="busRoute_1880099" depart="0.00" /><vehicle id="bus_682" type="vType_BUS" route="busRoute_1880101" depart="0.00" /><vehicle id="bus_684" type="vType_BUS" route="busRoute_1890201" depart="0.00" /><vehicle id="bus_686" type="vType_BUS" route="busRoute_1890194" depart="0.00" /><vehicle id="bus_688" type="vType_BUS" route="busRoute_1890199" depart="0.00" /><vehicle id="bus_690" type="vType_BUS" route="busRoute_1890200" depart="0.00" /><vehicle id="bus_692" type="vType_BUS" route="busRoute_1910863" depart="0.00" /><vehicle id="bus_694" type="vType_BUS" route="busRoute_1910864" depart="0.00" /><vehicle id="bus_696" type="vType_BUS" route="busRoute_1920139" depart="0.00" /><vehicle id="bus_698" type="vType_BUS" route="busRoute_1920140" depart="0.00" /><vehicle id="bus_700" type="vType_BUS" route="busRoute_1920138" depart="0.00" /><vehicle id="bus_702" type="vType_BUS" route="busRoute_1930128" depart="0.00" /><vehicle id="bus_704" type="vType_BUS" route="busRoute_1930129" depart="0.00" /><vehicle id="bus_706" type="vType_BUS" route="busRoute_1950153" depart="0.00" /><vehicle id="bus_708" type="vType_BUS" route="busRoute_1950155" depart="0.00" /><vehicle id="bus_710" type="vType_BUS" route="busRoute_1950154" depart="0.00" /><vehicle id="bus_712" type="vType_BUS" route="busRoute_1960191" depart="0.00" /><vehicle id="bus_714" type="vType_BUS" route="busRoute_1960190" depart="0.00" /><vehicle id="bus_716" type="vType_BUS" route="busRoute_1960189" depart="0.00" /><vehicle id="bus_718" type="vType_BUS" route="busRoute_1970133" depart="0.00" /><vehicle id="bus_720" type="vType_BUS" route="busRoute_1970132" depart="0.00" /><vehicle id="bus_722" type="vType_BUS" route="busRoute_1970131" depart="0.00" /><vehicle id="bus_724" type="vType_BUS" route="busRoute_1970134" depart="0.00" /><vehicle id="bus_726" type="vType_BUS" route="busRoute_2000091" depart="0.00" /><vehicle id="bus_728" type="vType_BUS" route="busRoute_2000092" depart="0.00" /><vehicle id="bus_730" type="vType_BUS" route="busRoute_2010194" depart="0.00" /><vehicle id="bus_732" type="vType_BUS" route="busRoute_2010193" depart="0.00" /><vehicle id="bus_734" type="vType_BUS" route="busRoute_2010192" depart="0.00" /><vehicle id="bus_736" type="vType_BUS" route="busRoute_2010195" depart="0.00" /><vehicle id="bus_738" type="vType_BUS" route="busRoute_2020168" depart="0.00" /><vehicle id="bus_740" type="vType_BUS" route="busRoute_2020166" depart="0.00" /><vehicle id="bus_742" type="vType_BUS" route="busRoute_2020167" depart="0.00" /><vehicle id="bus_744" type="vType_BUS" route="busRoute_2030107" depart="0.00" /><vehicle id="bus_746" type="vType_BUS" route="busRoute_2030105" depart="0.00" /><vehicle id="bus_748" type="vType_BUS" route="busRoute_2040202" depart="0.00" /><vehicle id="bus_750" type="vType_BUS" route="busRoute_2040203" depart="0.00" /><vehicle id="bus_752" type="vType_BUS" route="busRoute_2040201" depart="0.00" /><vehicle id="bus_754" type