<?xml version="1.0" encoding="UTF-8"?>
<!-- generated on 2020-07-06 12:52:40.102309 by randomTrips.py v1_6_0+0003-190709904e
  options: -n lachine.net.xml <doubleminus>seed 42 <doubleminus>fringe-factor 1 -p 1 -o Trips/tripLachine.pedestrian.trips.xml -e 360 -r Trips\tripLachine.pedestrian.rou.xml <doubleminus>vehicle-class pedestrian <doubleminus>pedestrians <doubleminus>prefix ped <doubleminus>max-distance 2000
-->
<routes xmlns:xsi="http://www.w3.org/2001/XMLSchema-instance" xsi:noNamespaceSchemaLocation="http://sumo.dlr.de/xsd/routes_file.xsd">
    <vType id="ped_pedestrian" vClass="pedestrian"/>
    <person id="ped0" depart="0.00" type="ped_pedestrian">
        <walk from="406237538#6" to="258169101"/>
    </person>
    <person id="ped1" depart="1.00" type="ped_pedestrian">
        <walk from="-164831294#5" to="-26159322"/>
    </person>
    <person id="ped2" depart="2.00" type="ped_pedestrian">
        <walk from="465427169#2" to="272509512#2"/>
    </person>
    <person id="ped3" depart="3.00" type="ped_pedestrian">
        <walk from="22662859#1" to="729931132#0"/>
    </person>
    <person id="ped4" depart="4.00" type="ped_pedestrian">
        <walk from="-657440562#3" to="22781445#1"/>
    </person>
    <person id="ped5" depart="5.00" type="ped_pedestrian">
        <walk from="48114934#1" to="23879588#1"/>
    </person>
    <person id="ped6" depart="6.00" type="ped_pedestrian">
        <walk from="-385654273#0" to="-474827977#1"/>
    </person>
    <person id="ped7" depart="7.00" type="ped_pedestrian">
        <walk from="25378137#2" to="25123763#4"/>
    </person>
    <person id="ped8" depart="8.00" type="ped_pedestrian">
        <walk from="-25270921#5" to="-657445826#0"/>
    </person>
    <person id="ped9" depart="9.00" type="ped_pedestrian">
        <walk from="25379708#6" to="-786923363#1"/>
    </person>
    <person id="ped10" depart="10.00" type="ped_pedestrian">
        <walk from="-454008925#0" to="-430416996#0"/>
    </person>
    <person id="ped11" depart="11.00" type="ped_pedestrian">
        <walk from="-22662967#3" to="-198367051#4"/>
    </person>
    <person id="ped12" depart="12.00" type="ped_pedestrian">
        <walk from="456377944#0" to="138573152"/>
    </person>
    <person id="ped13" depart="13.00" type="ped_pedestrian">
        <walk from="729931129#4" to="48114748#2"/>
    </person>
    <person id="ped14" depart="14.00" type="ped_pedestrian">
        <walk from="-238525749#1" to="159510745#12"/>
    </person>
    <person id="ped15" depart="15.00" type="ped_pedestrian">
        <walk from="25123763#3" to="-25166826#1"/>
    </person>
    <person id="ped16" depart="16.00" type="ped_pedestrian">
        <walk from="-107696155" to="-483118232#1"/>
    </person>
    <person id="ped17" depart="17.00" type="ped_pedestrian">
        <walk from="-210646199" to="434713111#1"/>
    </person>
    <person id="ped18" depart="18.00" type="ped_pedestrian">
        <walk from="198566117#0" to="22663135#1"/>
    </person>
    <person id="ped19" depart="19.00" type="ped_pedestrian">
        <walk from="-454008925#1" to="485320062#0"/>
    </person>
    <person id="ped20" depart="20.00" type="ped_pedestrian">
        <walk from="813505633" to="25379176#14"/>
    </person>
    <person id="ped21" depart="21.00" type="ped_pedestrian">
        <walk from="164758151#2" to="210647354#0"/>
    </person>
    <person id="ped22" depart="22.00" type="ped_pedestrian">
        <walk from="-541440205#2" to="240883073#0"/>
    </person>
    <person id="ped23" depart="23.00" type="ped_pedestrian">
        <walk from="-406237522#0" to="-362326133#10"/>
    </person>
    <person id="ped24" depart="24.00" type="ped_pedestrian">
        <walk from="-401315625#2" to="545014559#2"/>
    </person>
    <person id="ped25" depart="25.00" type="ped_pedestrian">
        <walk from="604324452" to="23639545#0"/>
    </person>
    <person id="ped26" depart="26.00" type="ped_pedestrian">
        <walk from="465957505#1" to="-26139550#0"/>
    </person>
    <person id="ped27" depart="27.00" type="ped_pedestrian">
        <walk from="-22781442#3" to="152977939#8"/>
    </person>
    <person id="ped28" depart="28.00" type="ped_pedestrian">
        <walk from="136354445#6" to="-462722244#2"/>
    </person>
    <person id="ped29" depart="29.00" type="ped_pedestrian">
        <walk from="164831294#4" to="48114930#1"/>
    </person>
    <person id="ped30" depart="30.00" type="ped_pedestrian">
        <walk from="728801289#0" to="574116984#0"/>
    </person>
    <person id="ped31" depart="31.00" type="ped_pedestrian">
        <walk from="-657444713" to="786923372#2"/>
    </person>
    <person id="ped32" depart="32.00" type="ped_pedestrian">
        <walk from="727573055" to="23879706"/>
    </person>
    <person id="ped33" depart="33.00" type="ped_pedestrian">
        <walk from="218548396" to="604324448#2"/>
    </person>
    <person id="ped34" depart="34.00" type="ped_pedestrian">
        <walk from="25510714#5" to="-47652967#0"/>
    </person>
    <person id="ped35" depart="35.00" type="ped_pedestrian">
        <walk from="-454008926#0" to="597861290#1"/>
    </person>
    <person id="ped36" depart="36.00" type="ped_pedestrian">
        <walk from="25161639#1" to="792558953#0"/>
    </person>
    <person id="ped37" depart="37.00" type="ped_pedestrian">
        <walk from="474852883" to="-47652940"/>
    </person>
    <person id="ped38" depart="38.00" type="ped_pedestrian">
        <walk from="25381455#1" to="624282124"/>
    </person>
    <person id="ped39" depart="39.00" type="ped_pedestrian">
        <walk from="-25079348#1" to="-23879646#0"/>
    </person>
    <person id="ped40" depart="40.00" type="ped_pedestrian">
        <walk from="-22781817#2" to="22781452#1"/>
    </person>
    <person id="ped41" depart="41.00" type="ped_pedestrian">
        <walk from="20570495#2" to="545014559#2"/>
    </person>
    <person id="ped42" depart="42.00" type="ped_pedestrian">
        <walk from="139098262" to="-462576267#5"/>
    </person>
    <person id="ped43" depart="43.00" type="ped_pedestrian">
        <walk from="141020535#3" to="-129387434#3"/>
    </person>
    <person id="ped44" depart="44.00" type="ped_pedestrian">
        <walk from="-47653074#1" to="543705221#8"/>
    </person>
    <person id="ped45" depart="45.00" type="ped_pedestrian">
        <walk from="-822252084#4" to="25163104"/>
    </person>
    <person id="ped46" depart="46.00" type="ped_pedestrian">
        <walk from="-25167184#2" to="579069195#2"/>
    </person>
    <person id="ped47" depart="47.00" type="ped_pedestrian">
        <walk from="469009863#0" to="-454235275#0"/>
    </person>
    <person id="ped48" depart="48.00" type="ped_pedestrian">
        <walk from="-362326672#3" to="474846526#0"/>
    </person>
    <person id="ped49" depart="49.00" type="ped_pedestrian">
        <walk from="-164818751#3" to="-26140424#0"/>
    </person>
    <person id="ped50" depart="50.00" type="ped_pedestrian">
        <walk from="25113343" to="20906193#3"/>
    </person>
    <person id="ped51" depart="51.00" type="ped_pedestrian">
        <walk from="-671337357#1" to="23879469#1"/>
    </person>
    <person id="ped52" depart="52.00" type="ped_pedestrian">
        <walk from="-434713111#0" to="316470910#4"/>
    </person>
    <person id="ped53" depart="53.00" type="ped_pedestrian">
        <walk from="-111626007#7" to="574116981#0"/>
    </person>
    <person id="ped54" depart="54.00" type="ped_pedestrian">
        <walk from="-47919065#0" to="47919068"/>
    </person>
    <person id="ped55" depart="55.00" type="ped_pedestrian">
        <walk from="-248005248#4" to="129433660#0"/>
    </person>
    <person id="ped56" depart="56.00" type="ped_pedestrian">
        <walk from="25510915" to="-364559676#6"/>
    </person>
    <person id="ped57" depart="57.00" type="ped_pedestrian">
        <walk from="-26159362#2" to="-164831287#0"/>
    </person>
    <person id="ped58" depart="58.00" type="ped_pedestrian">
        <walk from="47919167#0" to="-217469148"/>
    </person>
    <person id="ped59" depart="59.00" type="ped_pedestrian">
        <walk from="120486714#2" to="25167133#2"/>
    </person>
    <person id="ped60" depart="60.00" type="ped_pedestrian">
        <walk from="25379757#2" to="-120486714#7"/>
    </person>
    <person id="ped61" depart="61.00" type="ped_pedestrian">
        <walk from="424837410#3" to="451902762#2"/>
    </person>
    <person id="ped62" depart="62.00" type="ped_pedestrian">
        <walk from="210647356#0" to="-198566624#1"/>
    </person>
    <person id="ped63" depart="63.00" type="ped_pedestrian">
        <walk from="165214308#4" to="463836596#3"/>
    </person>
    <person id="ped64" depart="64.00" type="ped_pedestrian">
        <walk from="23889840#1" to="266069593#8"/>
    </person>
    <person id="ped65" depart="65.00" type="ped_pedestrian">
        <walk from="124740065" to="422420305#31"/>
    </person>
    <person id="ped66" depart="66.00" type="ped_pedestrian">
        <walk from="22662979" to="25079339"/>
    </person>
    <person id="ped67" depart="67.00" type="ped_pedestrian">
        <walk from="-541428894#1" to="26116235#5"/>
    </person>
    <person id="ped68" depart="68.00" type="ped_pedestrian">
        <walk from="-355390456#4" to="-485320138"/>
    </person>
    <person id="ped69" depart="69.00" type="ped_pedestrian">
        <walk from="87895799" to="-555505970#23"/>
    </person>
    <person id="ped70" depart="70.00" type="ped_pedestrian">
        <walk from="25379176#4" to="454229046#1"/>
    </person>
    <person id="ped71" depart="71.00" type="ped_pedestrian">
        <walk from="25379416#15" to="430418221#1"/>
    </person>
    <person id="ped72" depart="72.00" type="ped_pedestrian">
        <walk from="280167901#0" to="445176087"/>
    </person>
    <person id="ped73" depart="73.00" type="ped_pedestrian">
        <walk from="360575548#0" to="-217470712#1"/>
    </person>
    <person id="ped74" depart="74.00" type="ped_pedestrian">
        <walk from="26186931#1" to="25166826#11"/>
    </person>
    <person id="ped75" depart="75.00" type="ped_pedestrian">
        <walk from="47919185" to="25079118#3.190"/>
    </person>
    <person id="ped76" depart="76.00" type="ped_pedestrian">
        <walk from="316470524#3" to="159510745#6"/>
    </person>
    <person id="ped77" depart="77.00" type="ped_pedestrian">
        <walk from="22662872#1" to="199365964#1"/>
    </person>
    <person id="ped78" depart="78.00" type="ped_pedestrian">
        <walk from="159510745#7" to="401315625#2"/>
    </person>
    <person id="ped79" depart="79.00" type="ped_pedestrian">
        <walk from="512627197#1" to="-422420305#4"/>
    </person>
    <person id="ped80" depart="80.00" type="ped_pedestrian">
        <walk from="165365463#0" to="25123766#2"/>
    </person>
    <person id="ped81" depart="81.00" type="ped_pedestrian">
        <walk from="-360059211" to="462583770"/>
    </person>
    <person id="ped82" depart="82.00" type="ped_pedestrian">
        <walk from="-129433660#3" to="657313845#2"/>
    </person>
    <person id="ped83" depart="83.00" type="ped_pedestrian">
        <walk from="20570501#5" to="456383141#1"/>
    </person>
    <person id="ped84" depart="84.00" type="ped_pedestrian">
        <walk from="422420305#19" to="-526927235#1"/>
    </person>
    <person id="ped85" depart="85.00" type="ped_pedestrian">
        <walk from="-25509267#1" to="-361814428#1"/>
    </person>
    <person id="ped86" depart="86.00" type="ped_pedestrian">
        <walk from="-26158654#0" to="-381336699"/>
    </person>
    <person id="ped87" depart="87.00" type="ped_pedestrian">
        <walk from="22781815#1" to="-47653018#1"/>
    </person>
    <person id="ped88" depart="88.00" type="ped_pedestrian">
        <walk from="804440125#0" to="-23880335#1"/>
    </person>
    <person id="ped89" depart="89.00" type="ped_pedestrian">
        <walk from="217470713" to="164832341#0"/>
    </person>
    <person id="ped90" depart="90.00" type="ped_pedestrian">
        <walk from="164831287#9" to="48114739#1"/>
    </person>
    <person id="ped91" depart="91.00" type="ped_pedestrian">
        <walk from="25163187" to="25123763#9"/>
    </person>
    <person id="ped92" depart="92.00" type="ped_pedestrian">
        <walk from="309317005#3" to="165214084#1"/>
    </person>
    <person id="ped93" depart="93.00" type="ped_pedestrian">
        <walk from="25378095" to="546129518#2"/>
    </person>
    <person id="ped94" depart="94.00" type="ped_pedestrian">
        <walk from="-474619390#2" to="-24771038#0"/>
    </person>
    <person id="ped95" depart="95.00" type="ped_pedestrian">
        <walk from="641987171" to="20572653#0"/>
    </person>
    <person id="ped96" depart="96.00" type="ped_pedestrian">
        <walk from="20572196#4" to="-22566258#0"/>
    </person>
    <person id="ped97" depart="97.00" type="ped_pedestrian">
        <walk from="25510796" to="-454844521"/>
    </person>
    <person id="ped98" depart="98.00" type="ped_pedestrian">
        <walk from="25509267#1" to="480217491"/>
    </person>
    <person id="ped99" depart="99.00" type="ped_pedestrian">
        <walk from="165214085" to="-47919069#1"/>
    </person>
    <person id="ped100" depart="100.00" type="ped_pedestrian">
        <walk from="-48210912#9" to="729931129#0"/>
    </person>
    <person id="ped101" depart="101.00" type="ped_pedestrian">
        <walk from="-804254971#0" to="20906653#0"/>
    </person>
    <person id="ped102" depart="102.00" type="ped_pedestrian">
        <walk from="-23988359#1" to="729931132#1"/>
    </person>
    <person id="ped103" depart="103.00" type="ped_pedestrian">
        <walk from="-462576267#1" to="454860245"/>
    </person>
    <person id="ped104" depart="104.00" type="ped_pedestrian">
        <walk from="25381480#1" to="475247379#2"/>
    </person>
    <person id="ped105" depart="105.00" type="ped_pedestrian">
        <walk from="759685038" to="20572205#4"/>
    </person>
    <person id="ped106" depart="106.00" type="ped_pedestrian">
        <walk from="-165214768#6" to="20572662#2"/>
    </person>
    <person id="ped107" depart="107.00" type="ped_pedestrian">
        <walk from="490755722" to="164818751#2"/>
    </person>
    <person id="ped108" depart="108.00" type="ped_pedestrian">
        <walk from="173961719#0" to="728801290"/>
    </person>
    <person id="ped109" depart="109.00" type="ped_pedestrian">
        <walk from="26569299#1" to="545014543#5"/>
    </person>
    <person id="ped110" depart="110.00" type="ped_pedestrian">
        <walk from="-475247365#6" to="-657440549#5"/>
    </person>
    <person id="ped111" depart="111.00" type="ped_pedestrian">
        <walk from="-422420305#16" to="555505970#20"/>
    </person>
    <person id="ped112" depart="112.00" type="ped_pedestrian">
        <walk from="-25161743#6" to="165268859#2"/>
    </person>
    <person id="ped113" depart="113.00" type="ped_pedestrian">
        <walk from="-432385166#1" to="-434881779"/>
    </person>
    <person id="ped114" depart="114.00" type="ped_pedestrian">
        <walk from="25269892#1" to="139488865"/>
    </person>
    <person id="ped115" depart="115.00" type="ped_pedestrian">
        <walk from="238525749#0" to="23878797"/>
    </person>
    <person id="ped116" depart="116.00" type="ped_pedestrian">
        <walk from="804254972#0" to="-476130474#1"/>
    </person>
    <person id="ped117" depart="117.00" type="ped_pedestrian">
        <walk from="26158861" to="422420305#0"/>
    </person>
    <person id="ped118" depart="118.00" type="ped_pedestrian">
        <walk from="20572211#13" to="545014548"/>
    </person>
    <person id="ped119" depart="119.00" type="ped_pedestrian">
        <walk from="25123751#0" to="-555505978#5"/>
    </person>
    <person id="ped120" depart="120.00" type="ped_pedestrian">
        <walk from="25269468#0" to="25163149"/>
    </person>
    <person id="ped121" depart="121.00" type="ped_pedestrian">
        <walk from="-22790758#0" to="-406237538#2"/>
    </person>
    <person id="ped122" depart="122.00" type="ped_pedestrian">
        <walk from="-164831287#2" to="52732456#0"/>
    </person>
    <person id="ped123" depart="123.00" type="ped_pedestrian">
        <walk from="22662975#1" to="738358042#1"/>
    </person>
    <person id="ped124" depart="124.00" type="ped_pedestrian">
        <walk from="25381104#1" to="25270921#5"/>
    </person>
    <person id="ped125" depart="125.00" type="ped_pedestrian">
        <walk from="454846703#0" to="-422420305#38"/>
    </person>
    <person id="ped126" depart="126.00" type="ped_pedestrian">
        <walk from="-20906649#3" to="435441129#2"/>
    </person>
    <person id="ped127" depart="127.00" type="ped_pedestrian">
        <walk from="649197159#2" to="-18373385#14"/>
    </person>
    <person id="ped128" depart="128.00" type="ped_pedestrian">
        <walk from="22566072#2" to="165214078#9"/>
    </person>
    <person id="ped129" depart="129.00" type="ped_pedestrian">
        <walk from="-22781442#0" to="406237558#2"/>
    </person>
    <person id="ped130" depart="130.00" type="ped_pedestrian">
        <walk from="-561241001#2" to="25381678#1"/>
    </person>
    <person id="ped131" depart="131.00" type="ped_pedestrian">
        <walk from="25079118#3.190" to="-555505970#9"/>
    </person>
    <person id="ped132" depart="132.00" type="ped_pedestrian">
        <walk from="25379904#3" to="-364559676#2"/>
    </person>
    <person id="ped133" depart="133.00" type="ped_pedestrian">
        <walk from="47919048#1" to="736887353#3"/>
    </person>
    <person id="ped134" depart="134.00" type="ped_pedestrian">
        <walk from="475237460" to="25161827#11"/>
    </person>
    <person id="ped135" depart="135.00" type="ped_pedestrian">
        <walk from="-543705221#19" to="-120486716#0"/>
    </person>
    <person id="ped136" depart="136.00" type="ped_pedestrian">
        <walk from="-792558954" to="-25161639#0"/>
    </person>
    <person id="ped137" depart="137.00" type="ped_pedestrian">
        <walk from="-22662862#0" to="-199273727#0"/>
    </person>
    <person id="ped138" depart="138.00" type="ped_pedestrian">
        <walk from="164831287#4" to="-456377943"/>
    </person>
    <person id="ped139" depart="139.00" type="ped_pedestrian">
        <walk from="-120486725#1" to="-47652969#3"/>
    </person>
    <person id="ped140" depart="140.00" type="ped_pedestrian">
        <walk from="-435112406" to="-499060510#0"/>
    </person>
    <person id="ped141" depart="141.00" type="ped_pedestrian">
        <walk from="-120486726" to="422420305#28"/>
    </person>
    <person id="ped142" depart="142.00" type="ped_pedestrian">
        <walk from="309440972#3" to="20572232#3"/>
    </person>
    <person id="ped143" depart="143.00" type="ped_pedestrian">
        <walk from="-217469145" to="48114934#2"/>
    </person>
    <person id="ped144" depart="144.00" type="ped_pedestrian">
        <walk from="-173961719#2" to="-159510745#12"/>
    </person>
    <person id="ped145" depart="145.00" type="ped_pedestrian">
        <walk from="25162919#2" to="47652973#1"/>
    </person>
    <person id="ped146" depart="146.00" type="ped_pedestrian">
        <walk from="-23879353#0" to="20906189#1"/>
    </person>
    <person id="ped147" depart="147.00" type="ped_pedestrian">
        <walk from="364559678#7" to="475247365#1"/>
    </person>
    <person id="ped148" depart="148.00" type="ped_pedestrian">
        <walk from="452912052" to="20572199#3"/>
    </person>
    <person id="ped149" depart="149.00" type="ped_pedestrian">
        <walk from="430418222#1" to="432385166#2"/>
    </person>
    <person id="ped150" depart="150.00" type="ped_pedestrian">
        <walk from="25166826#11" to="-25166324#0"/>
    </person>
    <person id="ped151" depart="151.00" type="ped_pedestrian">
        <walk from="-20906649#0" to="164831287#5"/>
    </person>
    <person id="ped152" depart="152.00" type="ped_pedestrian">
        <walk from="-20570492#3" to="20904888#1"/>
    </person>
    <person id="ped153" depart="153.00" type="ped_pedestrian">
        <walk from="-47653112#0" to="165213084#3"/>
    </person>
    <person id="ped154" depart="154.00" type="ped_pedestrian">
        <walk from="480217480#0" to="25161827#9"/>
    </person>
    <person id="ped155" depart="155.00" type="ped_pedestrian">
        <walk from="-48160820" to="198566118#1"/>
    </person>
    <person id="ped156" depart="156.00" type="ped_pedestrian">
        <walk from="-25269542#0" to="-657432022#11"/>
    </person>
    <person id="ped157" depart="157.00" type="ped_pedestrian">
        <walk from="-20906189#3" to="-22662989"/>
    </person>
    <person id="ped158" depart="158.00" type="ped_pedestrian">
        <walk from="-25123770" to="-555505970#22"/>
    </person>
    <person id="ped159" depart="159.00" type="ped_pedestrian">
        <walk from="72644573#2" to="274814098"/>
    </person>
    <person id="ped160" depart="160.00" type="ped_pedestrian">
        <walk from="47652936#2" to="406237558#2"/>
    </person>
    <person id="ped161" depart="161.00" type="ped_pedestrian">
        <walk from="26158855#0" to="219178716#1"/>
    </person>
    <person id="ped162" depart="162.00" type="ped_pedestrian">
        <walk from="-597861276#0" to="-597861290#0"/>
    </person>
    <person id="ped163" depart="163.00" type="ped_pedestrian">
        <walk from="657313844" to="20570492#0"/>
    </person>
    <person id="ped164" depart="164.00" type="ped_pedestrian">
        <walk from="-364559678#8" to="-25123753#0"/>
    </person>
    <person id="ped165" depart="165.00" type="ped_pedestrian">
        <walk from="-22082638#1" to="47877703#1"/>
    </person>
    <person id="ped166" depart="166.00" type="ped_pedestrian">
        <walk from="468918452#1" to="-25365470"/>
    </person>
    <person id="ped167" depart="167.00" type="ped_pedestrian">
        <walk from="258141588" to="-406237560#5"/>
    </person>
    <person id="ped168" depart="168.00" type="ped_pedestrian">
        <walk from="22566322#6" to="-47653086#8"/>
    </person>
    <person id="ped169" depart="169.00" type="ped_pedestrian">
        <walk from="435436473#0" to="-456360282"/>
    </person>
    <person id="ped170" depart="170.00" type="ped_pedestrian">
        <walk from="-199277548#2" to="20572661#2"/>
    </person>
    <person id="ped171" depart="171.00" type="ped_pedestrian">
        <walk from="579071570#3" to="47653072#0"/>
    </person>
    <person id="ped172" depart="172.00" type="ped_pedestrian">
        <walk from="-25123753#0" to="-469009863#1"/>
    </person>
    <person id="ped173" depart="173.00" type="ped_pedestrian">
        <walk from="-422420305#25" to="-25161827#0"/>
    </person>
    <person id="ped174" depart="174.00" type="ped_pedestrian">
        <walk from="-422420305#14" to="120486722#2"/>
    </person>
    <person id="ped175" depart="175.00" type="ped_pedestrian">
        <walk from="-729931129#2" to="173966372#2"/>
    </person>
    <person id="ped176" depart="176.00" type="ped_pedestrian">
        <walk from="454851080" to="-545014557#0"/>
    </person>
    <person id="ped177" depart="177.00" type="ped_pedestrian">
        <walk from="-25379954#0" to="454008925#0"/>
    </person>
    <person id="ped178" depart="178.00" type="ped_pedestrian">
        <walk from="-20904880" to="453289221"/>
    </person>
    <person id="ped179" depart="179.00" type="ped_pedestrian">
        <walk from="22662967#0" to="-430803648#5"/>
    </person>
    <person id="ped180" depart="180.00" type="ped_pedestrian">
        <walk from="25079336#1" to="476051972"/>
    </person>
    <person id="ped181" depart="181.00" type="ped_pedestrian">
        <walk from="22662978#3" to="-48160788"/>
    </person>
    <person id="ped182" depart="182.00" type="ped_pedestrian">
        <walk from="822254269#5" to="-456391092#0"/>
    </person>
    <person id="ped183" depart="183.00" type="ped_pedestrian">
        <walk from="-605634366#1" to="463836596#0"/>
    </person>
    <person id="ped184" depart="184.00" type="ped_pedestrian">
        <walk from="-25161743#2" to="25123753#2"/>
    </person>
    <person id="ped185" depart="185.00" type="ped_pedestrian">
        <walk from="23876817" to="22566071#0"/>
    </person>
    <person id="ped186" depart="186.00" type="ped_pedestrian">
        <walk from="-469008663#1" to="555505978#7"/>
    </person>
    <person id="ped187" depart="187.00" type="ped_pedestrian">
        <walk from="543705221#5" to="164831324"/>
    </person>
    <person id="ped188" depart="188.00" type="ped_pedestrian">
        <walk from="-552411230#0" to="-20906184#1"/>
    </person>
    <person id="ped189" depart="189.00" type="ped_pedestrian">
        <walk from="456390626#3" to="20906185#3"/>
    </person>
    <person id="ped190" depart="190.00" type="ped_pedestrian">
        <walk from="-25123763#1" to="454860250"/>
    </person>
    <person id="ped191" depart="191.00" type="ped_pedestrian">
        <walk from="87895798#0" to="361991757#2"/>
    </person>
    <person id="ped192" depart="192.00" type="ped_pedestrian">
        <walk from="219178673#2" to="451899720#0"/>
    </person>
    <person id="ped193" depart="193.00" type="ped_pedestrian">
        <walk from="454189810#1" to="25270512#0"/>
    </person>
    <person id="ped194" depart="194.00" type="ped_pedestrian">
        <walk from="153254735" to="555001964"/>
    </person>
    <person id="ped195" depart="195.00" type="ped_pedestrian">
        <walk from="541428897" to="47919050#2"/>
    </person>
    <person id="ped196" depart="196.00" type="ped_pedestrian">
        <walk from="641622891#0" to="-25166951"/>
    </person>
    <person id="ped197" depart="197.00" type="ped_pedestrian">
        <walk from="25380037#0" to="362281451#1"/>
    </person>
    <person id="ped198" depart="198.00" type="ped_pedestrian">
        <walk from="-164831914#0" to="-191409073#3"/>
    </person>
    <person id="ped199" depart="199.00" type="ped_pedestrian">
        <walk from="120486722#2" to="25269892#1"/>
    </person>
    <person id="ped200" depart="200.00" type="ped_pedestrian">
        <walk from="199277548#9" to="464116411#1"/>
    </person>
    <person id="ped201" depart="201.00" type="ped_pedestrian">
        <walk from="-47919049#2" to="361991757#1"/>
    </person>
    <person id="ped202" depart="202.00" type="ped_pedestrian">
        <walk from="-22781442#2" to="-474846525#0"/>
    </person>
    <person id="ped203" depart="203.00" type="ped_pedestrian">
        <walk from="20906653#1" to="20572211#9"/>
    </person>
    <person id="ped204" depart="204.00" type="ped_pedestrian">
        <walk from="717373850" to="-360575547#3"/>
    </person>
    <person id="ped205" depart="205.00" type="ped_pedestrian">
        <walk from="22662862#1" to="47919064#1"/>
    </person>
    <person id="ped206" depart="206.00" type="ped_pedestrian">
        <walk from="23034936#3" to="-26158850#2"/>
    </person>
    <person id="ped207" depart="207.00" type="ped_pedestrian">
        <walk from="20904873#3" to="435441123"/>
    </person>
    <person id="ped208" depart="208.00" type="ped_pedestrian">
        <walk from="-463831575#4" to="795012483#2"/>
    </person>
    <person id="ped209" depart="209.00" type="ped_pedestrian">
        <walk from="624282125" to="430418225#1"/>
    </person>
    <person id="ped210" depart="210.00" type="ped_pedestrian">
        <walk from="406237560#2" to="-47652936#2"/>
    </person>
    <person id="ped211" depart="211.00" type="ped_pedestrian">
        <walk from="-642720354#0" to="25511066#0"/>
    </person>
    <person id="ped212" depart="212.00" type="ped_pedestrian">
        <walk from="462576267#4" to="364559676#3"/>
    </person>
    <person id="ped213" depart="213.00" type="ped_pedestrian">
        <walk from="26159077#4" to="-164831307"/>
    </person>
    <person id="ped214" depart="214.00" type="ped_pedestrian">
        <walk from="25167127#0" to="25163002#3"/>
    </person>
    <person id="ped215" depart="215.00" type="ped_pedestrian">
        <walk from="-25379712" to="555505970#15"/>
    </person>
    <person id="ped216" depart="216.00" type="ped_pedestrian">
        <walk from="-545014537#3" to="-561503285#0"/>
    </person>
    <person id="ped217" depart="217.00" type="ped_pedestrian">
        <walk from="198567468#5" to="-26529286"/>
    </person>
    <person id="ped218" depart="218.00" type="ped_pedestrian">
        <walk from="361814428#6" to="-22781460#3"/>
    </person>
    <person id="ped219" depart="219.00" type="ped_pedestrian">
        <walk from="-822254268#3" to="604324449#1"/>
    </person>
    <person id="ped220" depart="220.00" type="ped_pedestrian">
        <walk from="-48160787" to="25364933"/>
    </person>
    <person id="ped221" depart="221.00" type="ped_pedestrian">
        <walk from="522615635#0" to="-25380037#0"/>
    </person>
    <person id="ped222" depart="222.00" type="ped_pedestrian">
        <walk from="22662967#3" to="20572199#1"/>
    </person>
    <person id="ped223" depart="223.00" type="ped_pedestrian">
        <walk from="165476193#1" to="-26140287"/>
    </person>
    <person id="ped224" depart="224.00" type="ped_pedestrian">
        <walk from="165214768#5" to="-435423677#7"/>
    </person>
    <person id="ped225" depart="225.00" type="ped_pedestrian">
        <walk from="430418219#1" to="657440562#2"/>
    </person>
    <person id="ped226" depart="226.00" type="ped_pedestrian">
        <walk from="555505978#4" to="-476130445#1"/>
    </person>
    <person id="ped227" depart="227.00" type="ped_pedestrian">
        <walk from="25161827#6" to="-361991757#8"/>
    </person>
    <person id="ped228" depart="228.00" type="ped_pedestrian">
        <walk from="120486718" to="22663005"/>
    </person>
    <person id="ped229" depart="229.00" type="ped_pedestrian">
        <walk from="-430418211#0" to="430418223#1"/>
    </person>
    <person id="ped230" depart="230.00" type="ped_pedestrian">