<?xml version="1.0" encoding="UTF-8"?>

<!-- generated on 08/17/20 14:27:29 by Eclipse SUMO netedit Version 1.6.0
<configuration xmlns:xsi="http://www.w3.org/2001/XMLSchema-instance" xsi:noNamespaceSchemaLocation="http://sumo.dlr.de/xsd/netconvertConfiguration.xsd">

    <input>
        <sumo-net-file value="C:\Users\epicb\Documents\GitHub\SumoLachineArea\ChargingStation\test.net.xml"/>
    </input>

    <output>
        <output-file value="C:\Users\epicb\Documents\GitHub\SumoLachineArea\ChargingStation\test.net.xml"/>
        <output.street-names value="true"/>
    </output>

    <processing>
        <geometry.min-radius.fix.railways value="false"/>
        <geometry.max-grade.fix value="false"/>
        <offset.disable-normalization value="true"/>
        <lefthand value="false"/>
    </processing>

    <junctions>
        <no-internal-links value="false"/>
        <no-turnarounds value="true"/>
        <junctions.corner-detail value="5"/>
        <junctions.limit-turn-speed value="5.5"/>
        <rectangular-lane-cut value="false"/>
    </junctions>

    <pedestrian>
        <walkingareas value="true"/>
    </pedestrian>

    <netedit>
        <additional-files value="C:\Users\epicb\Documents\GitHub\SumoLachineArea\ChargingStation\charge.add.xml"/>
        <route-files value="C:\Users\epicb\Documents\GitHub\SumoLachineArea\ChargingStation\evehicle.rou.xml"/>
    </netedit>

    <report>
        <aggregate-warnings value="5"/>
    </report>

</configuration>
-->

<routes xmlns:xsi="http://www.w3.org/2001/XMLSchema-instance" xsi:noNamespaceSchemaLocation="http://sumo.dlr.de/xsd/routes_file.xsd">
    <vType id="vType_ELEC" vClass="evehicle" emissionClass="HBEFA2/zero" guiShape="evehicle" lcTimeToImpatience="1000">
        <param key="emissionClass" value="Energy/unknown"/>
        <param key="has.battery.device" value="true"/>
        <param key="has.rerouting.device" value="true"/>
        <param key="actualBatteryCapacity" value="1000"/>
        <param key="maximumBatteryCapacity" value="2000"/>
        <param key="maximumPower" value="100"/>
        <param key="constantPowerIntake" value="50"/>
        <param key="vehicleMass" value="3000"/>
        <param key="frontSurfaceArea" value="3"/>
        <param key="airDragCoefficient" value="0.7"/>
        <param key="internalMomentOfInertia" value="0.01"/>
        <param key="propulsionEfficientcy" value="1"/>
        <param key="radialDragCoefficient" value="0.5"/>
        <param key="recuperationEffieciency" value="0.9"/>
        <param key="stoppingTreshold" value="0.1"/>
    </vType>
    <route edges="422420305#5 422420305#6 422420305#7 422420305#8 422420305#9 422420305#10 422420305#11 25167202#0 25167202#1 25167202#2 -555505970#9 -555505970#8 -555505970#7 25167142#1 25166826#9 25167156#0 555505970#8 555505970#9 555505970#10 555505970#11 -112698974#1 -112698974#0 469008663#5 469008663#6 469008663#7 469008663#8 469008663#9 362437674#0 362437674#1 362437674#2 362437674#3 -25123763#4 -361991757#11 -361991757#10 -361991757#9 -361991757#8 -361991757#7 -361991757#6 -361991757#5 -25163215#0 -454844519 -25162301#3 -25162301#2 -25162301#1 -25162301#0 25161883#2 25161883#3 25161883#4 25161883#5 25162880 -25162687#5 -25162687#4 -25162687#3 25162914#0 25162914#1 25162965#1 25162965#2 -25162965#2 25162965#2 25162965#3 25162965#4 25162965#5 25162965#6 25162965#7 25162940 -25162687#1 -25162687#0 -462564648 454860249 484498396#2 419811081 419811061#1 361993055#1 198565955 198565956 -25113353#2 -25113353#1 -25113353#0 -454235275#1 -454235275#0 -822252084#4 -822252084#3 -822252084#2 -822252084#1 -25166324#0 -526927235#3 -526927235#2 -526927235#1 -454846704#1" color="yellow" id="route_0"/>
    <route edges="483203652#2 483203652#3 454271342#0 454271342#1 454271342#2 454271342#3 454271342#4 454271342#5 454844520 454844521 120486714#0 120486714#1 120486714#2 120486714#3 120486714#4 120486714#5 120486714#6 120486714#7 120486714#8 120486714#9 120486714#10 -25166324#2 499060510#4 499060510#5 499060510#6 25123753#4 -25123753#4 -499060510#6 -499060510#5 -499060510#4 25166324#2 -120486714#10 -120486714#9 -120486714#8 -120486714#7 -120486714#6 -120486714#5 -120486714#4 -25123769#2 -555505978#0" color="yellow" id="route_1"/>
    <route edges="462576267#9 361991757#0 361991757#1 -361991757#1" color="yellow" id="route_2"/>
    <vehicle id="vehicle_3" type="vType_ELEC" depart="21.00" route="route_2">
        <stop chargingStation="chargingStation_361991757#0_0_3" duration="60.00"/>
    </vehicle>
    <vehicle id="vehicle_1" depart="30.00" route="route_1"/>
    <vehicle id="vehicle_0" type="vType_ELEC" depart="50.00" route="route_0">
        <stop chargingStation="chargingStation_422420305#6_0_4" duration="60.00"/>
    </vehicle>
    <vehicle id="vehicle_2" type="vType_ELEC" depart="55.00" route="route_0">
        <stop chargingStation="chargingStation_422420305#6_0_4" duration="60.00"/>
    </vehicle>
</routes>
