<?xml version="1.0" encoding="UTF-8"?>

<!-- generated on 09/24/20 16:17:23 by Eclipse SUMO netedit Version 1.6.0
<configuration xmlns:xsi="http://www.w3.org/2001/XMLSchema-instance" xsi:noNamespaceSchemaLocation="http://sumo.dlr.de/xsd/netconvertConfiguration.xsd">

    <input>
        <sumo-net-file value="C:\Users\epicb\Documents\GitHub\SumoLachineArea\ChargingTest\test.net.xml"/>
    </input>

    <output>
        <output-file value="C:\Users\epicb\Documents\GitHub\SumoLachineArea\ChargingTest\test.net.xml"/>
        <output.street-names value="true"/>
    </output>

    <processing>
        <geometry.min-radius.fix.railways value="false"/>
        <geometry.max-grade.fix value="false"/>
        <offset.disable-normalization value="true"/>
        <lefthand value="false"/>
    </processing>

    <junctions>
        <no-turnarounds value="true"/>
        <junctions.corner-detail value="5"/>
        <junctions.limit-turn-speed value="5.5"/>
        <rectangular-lane-cut value="false"/>
    </junctions>

    <pedestrian>
        <walkingareas value="true"/>
    </pedestrian>

    <netedit>
        <additional-files value="C:\Users\epicb\Documents\GitHub\SumoLachineArea\ChargingTest\parking.add.xml"/>
        <route-files value="C:\Users\epicb\Documents\GitHub\SumoLachineArea\ChargingTest\parking.rou.xml"/>
    </netedit>

    <report>
        <aggregate-warnings value="5"/>
    </report>

</configuration>
-->

<additional xmlns:xsi="http://www.w3.org/2001/XMLSchema-instance" xsi:noNamespaceSchemaLocation="http://sumo.dlr.de/xsd/additional_file.xsd">
    <containerStop id="containerStop_-483203652#1_0_0" lane="-483203652#1_0" startPos="0.07" endPos="10.07"/>
    <parkingArea id="parkingArea_454271342#2_0_0" lane="454271342#2_0" startPos="55.42" endPos="65.42" roadsideCapacity="1"/>
    <parkingArea id="parkingArea_454271342#2_0_3" lane="454271342#2_0" startPos="23.71" endPos="33.71" onRoad="1"/>
    <parkingArea id="parkingArea_454271342#2_0_4" lane="454271342#2_0" startPos="11.57" endPos="21.57"/>
    <parkingArea id="parkingArea_454271342#3_0_2" lane="454271342#3_0" startPos="35.16" endPos="45.16" roadsideCapacity="1" friendlyPos="1"/>
    <parkingArea id="parkingArea_454271342#3_1_1" lane="454271342#3_1" startPos="15.33" endPos="25.33" roadsideCapacity="1"/>
    <chargingStation id="chargingStation_454271342#2_0_0" lane="454271342#2_0" startPos="89.69" endPos="99.69"/>
    <chargingStation id="chargingStation_454271342#2_0_1" lane="454271342#2_0" startPos="89.69" endPos="99.69"/>
</additional>
