<?xml version="1.0" encoding="UTF-8"?>
<!-- generated on 2020-08-05 17:35:20.190033 by edgesindistricts.py v1_6_0+0003-190709904e
  options: -n ../lachine.net.xml -t taz_shapes.add.xml -o taz_edges.taz.xml
-->
<tazs xmlns:xsi="http://www.w3.org/2001/XMLSchema-instance" xsi:noNamespaceSchemaLocation="http://sumo.dlr.de/xsd/taz_file.xsd">
    <taz id="taz_0" edges="-120486714#10 -120486714#11 -120486714#12 -120486714#13 -120486714#14 -120486714#15 -120486714#8 -120486714#9 -120486723 -25123753#0 -25123753#1 -25123753#2 -25123753#3 -25123753#4 -25123754#0 -25123754#1 -25123754#2 -25166289#3 -25166289#4 -25166324#1 -25166324#2 -25166364#0 -25166364#1 -25166457#0 -25166457#1 -25166574 -25166584 -462717519 -499060510#0 -499060510#2 -499060510#3 -499060510#4 -499060510#5 -499060510#6 -499060510#7 -499060510#8 -657445821 120486714#10 120486714#11 120486714#12 120486714#13 120486714#14 120486714#15 120486714#8 120486714#9 120486723 25123751#0 25123751#1 25123753#0 25123753#1 25123753#2 25123753#3 25123753#4 25123754#0 25123754#1 25123754#2 25123762 25166264#0 25166264#1 25166289#3 25166289#4 25166320 25166324#1 25166324#2 25166360 25166364#0 25166364#1 25166457#0 25166457#1 25166574 25166584 499060510#0 499060510#2 499060510#3 499060510#4 499060510#5 499060510#6 499060510#7 499060510#8 657445821 736887372#1 736887372#2 736887372#3 736887372#4 736887373 736887374 736887375#0 736887375#1 736887376#0 736887376#1 736887378 736887379"/>
    <taz id="taz_1" edges="-25270512#2 -25270512#3 -25270512#4 -25270512#5 -25270512#6 -25270512#7 -25270884#0 -25270884#1 -25270884#2 -25270921#2 -25270921#3 -25270921#4 -25270921#5 -25270921#6 -25271538#1 -25271538#2 -25271539#0 -25271539#1 -25379176#0 -25379416#0 -25379416#1 -25379416#2 -25379416#3 -25379416#4 -25379416#5 -25379676#0 -25379676#1 -25379676#2 -25379708#0 -25379708#1 -25379708#2 -25379708#3 -25379708#5 -25379712 -25379757#0 -25379757#1 -25379757#2 -25379882 -25379995#0 -25379995#1 -25379995#2 -25380005 -25509420 -25510526#0 -25510526#1 -25510710 -25510714#2 -25510714#3 -25510714#4 -25510714#5 -25510714#6 -25510714#7 -25511066#0 -25511066#1 -435124424 -47652955 -657432022#11 -657432022#12 -657432022#13 -657432022#3 -657432022#4 -657432022#5 -657432022#6 -657432022#7 -657432022#8 -657432022#9 25270512#2 25270512#3 25270512#4 25270512#5 25270512#6 25270512#7 25270884#0 25270884#1 25270884#2 25270921#2 25270921#3 25270921#4 25270921#5 25270921#6 25271537#0 25271537#1 25271538#1 25271538#2 25271539#0 25271539#1 25271539#2 25379416#0 25379416#1 25379416#2 25379416#3 25379416#4 25379416#5 25379602 25379605 25379676#0 25379676#1 25379676#2 25379708#0 25379708#1 25379708#2 25379708#3 25379708#4 25379708#5 25379708#6 25379712 25379719 25379757#0 25379757#1 25379757#2 25379882 25379995#0 25379995#1 25379995#2 25380001#0 25380001#1 25380005 25509420 25510526#1 25510714#2 25510714#3 25510714#4 25510714#5 25510714#6 25510714#7 25510714#8 25510796 25510927#0 25510927#1 25511032 25511066#0 25511066#1 25608177#0 25608177#1 25608283#0 25608283#1 25608283#2 25608291 25608372 25608402 435124424 47652955 657432022#11 657432022#12 657432022#13 657432022#3 657432022#4 657432022#5 657432022#6 657432022#7 657432022#8 657432022#9 87895710"/>
</tazs>
