<?xml version="1.0" encoding="UTF-8"?>

<additional>
    <taz id="taz_0" shape="6163.21,3064.91 5691.63,3255.45 5694.01,2660.02 6194.17,2662.40 6163.21,3064.91" color="blue"/>
    <taz id="taz_1" shape="3826.91,3513.36 3148.73,3502.62 3193.46,2819.07 3937.86,2722.44 3826.91,3513.36" color="green"/>
</additional>
