<?xml version="1.0" encoding="UTF-8"?>

<!-- generated on 07/06/20 12:52:41 by Eclipse SUMO duarouter Version 1.6.0
<configuration xmlns:xsi="http://www.w3.org/2001/XMLSchema-instance" xsi:noNamespaceSchemaLocation="http://sumo.dlr.de/xsd/duarouterConfiguration.xsd">

    <input>
        <net-file value="lachine.net.xml"/>
        <route-files value="Trips/tripLachine.pedestrian.trips.xml"/>
    </input>

    <output>
        <output-file value="Trips\tripLachine.pedestrian.rou.xml"/>
        <alternatives-output value="Trips\tripLachine.pedestrian.rou.alt.xml"/>
    </output>

    <time>
        <begin value="0"/>
        <end value="360.0"/>
    </time>

    <report>
        <no-warnings value="true"/>
        <ignore-errors value="true"/>
        <no-step-log value="true"/>
    </report>

</configuration>
-->

<routes xmlns:xsi="http://www.w3.org/2001/XMLSchema-instance" xsi:noNamespaceSchemaLocation="http://sumo.dlr.de/xsd/routes_file.xsd">
    <vType id="ped_pedestrian" vClass="pedestrian"/>
    <person id="ped0" type="ped_pedestrian" depart="0.00">
        <walk edges="406237538#6 -406237538#5 -406237538#4 -406237538#3 -430418455#0 -430418455#1 -430418455#2 -474852883 22790758#4 22790758#2 22790758#1 22790758#0 -22790762#1 152977939#10 152977939#9 152977939#8 152977939#7 258141583 -165213109 336922873 357112222#0 357112222#1 357112222#2 -105391525 454193776 105391589#0 105391589#1 454193780 454193781 -23034971 -362326672#4 -362326672#3 -362326672#2 -362326672#1 362326672#0 362326671#4 362326671#3 362326671#2 362326671#1 362326671#0 22781464 454008924 -22781460#3 22781481#1 258169101"/>
    </person>
    <person id="ped1" type="ped_pedestrian" depart="1.00">
        <walk edges="-164831294#5 -26159298#2 26159298#3 164831287#1 164831287#2 -26159322"/>
    </person>
    <person id="ped2" type="ped_pedestrian" depart="2.00">
        <walk edges="465427169#2 465427169#1 465427169#0 20904874#5 20904874#4 20904874#3 20904874#2 20904874#1 20904874#0 -20904872#1 453289219#1 453289219#0 464116411#1 464116411#0 453281041#2 453281041#1 453281041#0 453282262 199365964#1 199365964#0 23889526 20906194#3 -20906194#2 -20906194#1 272509512#0 272509512#1 272509512#2"/>
    </person>
    <person id="ped3" type="ped_pedestrian" depart="3.00">
        <walk edges="22662859#1 543705221#1 543705221#2 -543705221#3 -543705221#4 -543705221#5 -543705221#6 -543705221#7 -543705221#8 -543705221#9 -543705221#10 -483203690 -483203691 453267746 -483187566 -454850524#0 48114727 48114723 48114729 453282263 48114733 464116409#1 464116409#0 453281037#1 464116411#1 453289219#0 453289219#1 453289219#2 453289219#3 20572201#1 20572201#2 729931132#0"/>
    </person>
    <person id="ped4" type="ped_pedestrian" depart="4.00">
        <walk edges="-657440562#3 -538590235#0 -362326671#0 22781464 22781459#2 22781459#1 22781459#0 -22781458#1 -22781452#1 -22781450 -22781444#4 -22781444#3 -22781444#2 22781445#0 22781445#1"/>
    </person>
    <person id="ped5" type="ped_pedestrian" depart="5.00">
        <walk edges="48114934#1 -48114934#0 -164831287#12 -164831287#11 -164831311#0 -453503453 -453503455 -456377943 -456377944#2 -456377944#1 -456377944#0 -452102191 -452102189 452102187#0 452102187#1 52732457#1 52732457#2 681064714#0 681064714#2 681064714#3 681064714#4 -316470910#6 -316470910#5 -316470910#4 -316470910#3 -316470910#2 -316470910#0 104938753 25364933 23879570 -25364870#0 -25364870#1 23879588#0 23879588#1"/>
    </person>
    <person id="ped6" type="ped_pedestrian" depart="6.00">
        <walk edges="-385654273#0 -453503454 -453503455 456377945 -164831310#0 48114929 -164831287#6 -164831287#5 -164831287#4 -164831287#3 -164831287#2 -164831287#1 -26159298#3 219178714#1 219178714#0 219178716#2 -26159077#1 -26159077#2 219178673#2 219178673#1 219178673#0 -198566624#1 -198567468#0 -198567468#1 -198567468#2 -198567468#3 -198567468#4 -474827977#1"/>
    </person>
    <person id="ped7" type="ped_pedestrian" depart="7.00">
        <walk edges="25378137#2 492406945 492406944 -469008663#2 -469008663#3 -469008663#4 -469008663#5 -469008663#6 -469008663#7 -469008663#8 -469008663#9 -362437674#0 -362437674#1 -362437674#2 25123763#4"/>
    </person>
    <person id="ped8" type="ped_pedestrian" depart="8.00">
        <walk edges="-25270921#5 -25379416#1 -25379416#0 25608402 -25510714#4 -25510714#3 -25510714#2 25379605 657432022#11 657432022#12 657432022#13 657432022#14 462336672 483204482 483203653 483203652#0 483203652#1 483203652#2 483203652#3 454271342#0 454271342#1 454271342#2 454271342#3 454271342#4 454271342#5 454844520 454844521 120486714#0 120486714#1 120486714#2 454298935 -25161704 -657445826#0"/>
    </person>
    <person id="ped9" type="ped_pedestrian" depart="9.00">
        <walk edges="25379708#6 25510796 657432022#14 462336672 454849470#0 419811083#3 364559678#12 -786923359#1 -786923359#2 364559676#1 -364559676#2 -364559676#3 364559676#4 -364559676#5 -786923366#0 -786923363#1"/>
    </person>
    <person id="ped10" type="ped_pedestrian" depart="10.00">
        <walk edges="-454008925#0 -454008925#1 454008924 22781464 362326671#0 362326671#1 362326671#2 362326671#3 362326671#4 362326672#0 -362326672#1 -362326672#2 -362326672#3 -362326672#4 -23034971 454193781 454193780 105391589#1 105391589#0 454193776 -105391525 357112222#2 357112222#1 357112222#0 336922873 -165213109 258141583 152977939#7 152977939#8 152977939#9 152977939#10 -22790762#1 22790758#0 22790758#1 22790758#2 22790758#4 -474852883 -430418455#2 -430418455#1 -432385166#4 -432385166#3 -432385166#2 -430416996#0"/>
    </person>
    <person id="ped11" type="ped_pedestrian" depart="11.00">
        <walk edges="-22662967#3 165214085 471795207 453269070 198367051#5 -198367051#4"/>
    </person>
    <person id="ped12" type="ped_pedestrian" depart="12.00">
        <walk edges="456377944#0 452102191 -452102189 452102187#0 452102187#1 52732457#1 52732457#2 681064714#0 681064714#2 681064714#3 681064714#4 -316470910#6 -316470910#5 -316470910#4 -316470910#3 -316470910#2 -316470910#0 104938753 25364933 316470908#0 316470909 23879323 23879328#3 23879328#2 23879328#1 199277548#10 23878797 -72650849#2 -72650849#3 136354445#6 138573152"/>
    </person>
    <person id="ped13" type="ped_pedestrian" depart="13.00">
        <walk edges="729931129#4 165214307#3 165214307#4 165214307#5 729931131#5 729931131#6 266069592 463844969#2 23630014 48114748#1 48114748#2"/>
    </person>
    <person id="ped14" type="ped_pedestrian" depart="14.00">
        <walk edges="-238525749#1 238525750 238525746 -385654273#0 -453503454 -453503455 -456377943 -456377944#2 -456377944#1 -456377944#0 -452102191 -452102189 452102187#0 452102187#1 52732457#1 52732457#2 681064714#0 681064714#2 681064714#3 681064714#4 -316470910#6 -316470910#5 -316470910#4 -316470910#3 -316470910#2 -316470910#0 104938753 25364933 316470908#0 316470909 23879323 173961719#2 173961719#1 173961719#0 316470523#3 316470523#2 316470523#0 316470522#0 316470522#1 475279655#0 475279655#1 316470524#0 316470524#1 316470524#2 316470524#3 608435179 -727573056 462766542#2 20906185#4 20906185#3 159510745#12"/>
    </person>
    <person id="ped15" type="ped_pedestrian" depart="15.00">
        <walk edges="25123763#3 -361991757#12 499060510#0 499060510#2 -25166289#3 -25166289#2 -25166289#1 -25166826#1"/>
    </person>
    <person id="ped16" type="ped_pedestrian" depart="16.00">
        <walk edges="-107696155 -462766542#0 -462766542#1 -462766542#2 727573056 608435179 316470524#3 316470524#2 316470524#1 316470524#0 475279655#1 475279655#0 316470522#1 316470522#0 316470523#0 316470523#2 316470523#3 173961719#0 173961719#1 173961719#2 23879323 316470909 316470908#0 25364933 104938753 -316470910#0 -316470910#2 -316470910#3 -316470910#4 -316470910#5 -316470910#6 681064714#4 681064714#3 681064714#2 681064714#0 52732457#2 52732457#1 452102187#1 452102187#0 -452102189 452102191 23034935#0 -26569317#1 -483118232#0 -483118232#1"/>
    </person>
    <person id="ped17" type="ped_pedestrian" depart="17.00">
        <walk edges="-210646199 -210646200#2 198566118#14 451899720#2 451899720#3 451899720#4 451896831 451896830#1 451896830#2 499892370 499892372#1 477486650 453533478 -424837410#0 -424837410#1 -424837410#2 -424837410#3 422417411#2 422417411#1 26528924#2 -434713110 434713111#1"/>
    </person>
    <person id="ped18" type="ped_pedestrian" depart="18.00">
        <walk edges="198566117#0 -198566118#16 451899720#2 198567470 -198567468#10 -198567468#9 -198567468#8 -198567468#7 -198567468#6 -198567468#5 -198567468#4 -198567468#3 -198567468#2 -198567468#1 -198567468#0 198566624#2 129387434#0 129387434#1 129387434#2 129387434#3 302696354 452693110 452693109 302696353#0 302696353#1 302696353#2 52732454#0 52732454#1 52732454#2 52732454#3 52732454#4 52732454#5 52732454#6 52732454#7 452102185 452102187#0 452102187#1 52732457#1 52732457#2 681064714#0 681064714#2 475097853#1 527403313 25365467 22663135#0 22663135#1"/>
    </person>
    <person id="ped19" type="ped_pedestrian" depart="19.00">
        <walk edges="-454008925#1 454008924 22781464 362326671#0 362326671#1 362326671#2 47652936#0 485320065 485320062#0"/>
    </person>
    <person id="ped20" type="ped_pedestrian" depart="20.00">
        <walk edges="813505633 334727443#0 -362326672#1 -362326672#2 -362326672#3 -362326672#4 -23034971 454193781 454193780 25379416#19 25379416#18 25381488#0 25379475#1 25379475#0 25379467#0 25379176#14"/>
    </person>
    <person id="ped21" type="ped_pedestrian" depart="21.00">
        <walk edges="164758151#2 164758151#1 164758151#0 164831318#0 574746698 574746700 451896828 451896825 26529430#0 198567472 -198567468#4 -198567468#5 210647354#0"/>
    </person>
    <person id="ped22" type="ped_pedestrian" depart="22.00">
        <walk edges="-541440205#2 541440205#0 26528924#1 26528924#2 -45530562#4 -360575548#0 -360575548#1 -573584084#0 -573584084#1 -360575545#0 360575545#1 240883073#0"/>
    </person>
    <person id="ped23" type="ped_pedestrian" depart="23.00">
        <walk edges="-406237522#0 -406237522#2 -406237522#4 -406237522#5 -406237522#6 22781804#2 47652799 152977939#11 152977939#10 152977939#9 152977939#8 152977939#7 258141583 -165213109 -336922873 -357112222#0 -357112222#1 -165213108 105391525 361818248#1 361818248#0 454193775 25508268#0 361818247#0 356388356#2 356388356#1 25381678#8 25508635 475247365#14 422419272#0 422419272#2 422419272#3 -422419272#4 -422419272#5 -422419272#7 -422419272#8 -422419272#9 -422419272#10 -422419272#11 -362326133#0 -362326133#1 -362326133#2 -362326133#3 -362326133#5 -362326133#7 -362326133#8 -362326133#9 -362326133#10"/>
    </person>
    <person id="ped24" type="ped_pedestrian" depart="24.00">
        <walk edges="-401315625#2 -401315625#3 404114960 -108399976 -467438987 476051970#2 -23879588#3 -23879588#2 23879588#1 23879588#0 25364870#1 25364870#0 47919192 316470909 23879323 23879328#3 23879328#2 23879328#1 199277548#10 23878797 -72650849#2 -72650849#3 136354445#6 136354445#5 136354445#3 -136354445#2 -136354445#1 -136354445#0 22082636#0 22082636#1 22082636#2 22082636#3 545014559#0 -545014559#1 545014559#2"/>
    </person>
    <person id="ped25" type="ped_pedestrian" depart="25.00">
        <walk edges="604324452 266645097#5 -173966372#1 -173966372#2 -456391092#0 -456391092#1 -456391092#2 -456391092#3 453981205 -545025966#7 -545025966#6 -545025966#5 -545025966#4 -545025966#3 -545025966#2 -545025966#1 -545025966#0 -463844969#4 -463844969#3 -463844969#2 -463844969#1 20570501#2 23639545#1 23639545#0"/>
    </person>
    <person id="ped26" type="ped_pedestrian" depart="26.00">
        <walk edges="465957505#1 465957505#0 -641622891#2 -641622890#0 -25380803#4 -25380803#5 -25380803#6 -25380803#7 -25380803#8 577543974#0 -578215550 -512911575#1 430653198#2 -124740065 26139550#1 -26139550#0"/>
    </person>
    <person id="ped27" type="ped_pedestrian" depart="27.00">
        <walk edges="-22781442#3 22781442#3 -453755230#1 -453755230#2 -453755230#3 22781457#0 258169099#0 538590242 -538586159#1 -538586156#0 22781463 -22781727#1 -22781727#3 -362326671#0 -362326671#1 -362326671#2 -362326671#3 -362326671#4 -362326672#0 -362326672#1 -362326672#2 -362326672#3 -362326672#4 -23034971 454193781 454193780 105391589#1 105391589#0 454193776 -105391525 357112222#2 357112222#1 357112222#0 336922873 -165213109 258141583 152977939#7 152977939#8"/>
    </person>
    <person id="ped28" type="ped_pedestrian" depart="28.00">
        <walk edges="136354445#6 -72650849#3 -72650849#2 23878797 199277548#10 23879328#1 23879328#2 23879328#3 23879323 316470909 316470908#0 25364933 104938753 316470910#0 316470910#2 316470910#3 316470910#4 316470910#5 25079286#0 25079286#1 -462722244#2"/>
    </person>
    <person id="ped29" type="ped_pedestrian" depart="29.00">
        <walk edges="164831294#4 -164831294#5 -26159298#2 -26159298#3 -164831287#1 -164831287#2 -164831287#3 -164831287#4 -164831287#5 -164831287#6 -164831287#7 -164831287#8 -164831287#9 -164831287#10 -164831287#11 -48114930#0 48114930#1"/>
    </person>
    <person id="ped30" type="ped_pedestrian" depart="30.00">
        <walk edges="728801289#0 -649197159#0 -649197159#1 120819878#0 -120819878#1 -120819878#2 52732457#1 452102187#1 452102187#0 452102185 52732454#7 52732454#6 574116984#0"/>
    </person>
    <person id="ped31" type="ped_pedestrian" depart="31.00">
        <walk edges="-657444713 -642721960#1 -642721960#0 -454837994#0 419811083#0 419811083#1 419811083#2 364559678#12 -786923359#0 -462576267#2 -462576267#3 -462576267#4 -462576267#5 -786923372#0 786923372#2"/>
    </person>
    <person id="ped32" type="ped_pedestrian" depart="32.00">
        <walk edges="727573055 20572218#1 20572218#0 -20572220#0 -20572220#1 -20572220#2 20906188#2 20906188#1 -20906189#0 20906653#3 469768777 475279655#0 316470522#1 316470522#0 316470523#0 316470523#2 316470523#3 173961719#0 173961719#1 173961719#2 23879323 316470909 47919192 25364870#0 25364870#1 23879588#0 23879588#1 -23879588#2 -23879588#3 476051970#2 467438985 23879696#0 23879696#1 23879696#2 23879696#3 23879706"/>
    </person>
    <person id="ped33" type="ped_pedestrian" depart="33.00">
        <walk edges="218548396 374861911#0 310751428 -381461040#0 -381461040#1 -381461040#2 -199277548#1 -199277548#2 -199277548#3 -199277548#4 -199277548#5 199277548#6 199277548#7 -136601613#2 -136601613#1 -136354445#6 -136354445#5 -136354445#3 -136354445#2 -136354445#1 -136354445#0 -22082637 -462766542#2 -462766542#1 -462766542#0 173966372#0 173966372#1 556880682#3 604324451#1 604324448#0 604324448#1 604324448#2"/>
    </person>
    <person id="ped34" type="ped_pedestrian" depart="34.00">
        <walk edges="25510714#5 25608402 25379416#0 25379416#1 25379416#2 25270512#6 25379995#0 25379995#1 25379995#2 -25381048#0 25379176#4 25379176#5 25379176#6 25379176#7 25379176#8 25379176#9 25379176#10 25379176#11 25379176#12 25379176#13 25379176#14 462560313 454229049 25508405 25508404 361818248#1 105391525 -165213108 22781818#0 22781818#2 22781818#3 22781818#4 -47652967#0"/>
    </person>
    <person id="ped35" type="ped_pedestrian" depart="35.00">
        <walk edges="-454008926#0 22781460#2 454008924 22781464 362326671#0 362326671#1 362326671#2 362326671#3 362326671#4 362326672#0 -362326672#1 -362326672#2 -362326672#3 -362326672#4 -23034971 454193781 454193780 105391589#1 105391589#0 454193776 -105391525 357112222#2 22781817#3 22781817#2 22781817#1 22781814#1 -597861290#0 597861290#1"/>
    </person>
    <person id="ped36" type="ped_pedestrian" depart="36.00">
        <walk edges="25161639#1 25161639#2 25161639#3 -361991757#6 25163224#1 25163224#2 -469008663#5 -469008663#4 -469008663#3 -469008663#2 -469008663#1 -454837994#6 792558953#0"/>
    </person>
    <person id="ped37" type="ped_pedestrian" depart="37.00">
        <walk edges="474852883 22790758#4 22790758#2 22790758#1 22790758#0 -22790762#1 152977939#10 152977939#9 152977939#8 152977939#7 258141583 -165213109 258141584 22781822#3 22781822#2 22781822#1 22781822#0 153254683#1 153254683#0 -153254682#3 -153254682#2 -153254682#1 -153254682#0 47652941#0 153254735 -47652940"/>
    </person>
    <person id="ped38" type="ped_pedestrian" depart="38.00">
        <walk edges="25381455#1 -25381678#4 -25381678#5 -25381678#6 -25381678#7 -25381678#8 -25508635 475247365#14 422419272#0 422419272#2 422419272#3 -422419272#4 -422419272#5 -422419272#7 -422419272#8 -422419272#9 -422419272#10 -422419272#11 -362326133#0 -362326133#1 -362326133#2 -362326133#3 -362326133#5 -362326133#7 -362326133#8 -362326133#9 -362326133#10 -362326133#11 -362326133#12 -22781441#0 -22781441#1 -22781441#2 47326658#0 477764117#2 477764117#3 624282124"/>
    </person>
    <person id="ped39" type="ped_pedestrian" depart="39.00">
        <walk edges="-25079348#1 -25079348#0 111626007#7 25079286#2 25079286#1 25079286#0 316470910#5 316470910#4 316470910#3 316470910#2 316470910#0 104938753 25364933 23879570 -25364870#0 -25364870#1 23879588#0 -23879646#1 -23879646#0"/>
    </person>
    <person id="ped40" type="ped_pedestrian" depart="40.00">
        <walk edges="-22781817#2 -22781817#3 357112222#2 -105391525 454193776 105391589#0 105391589#1 454193780 454193781 -23034971 -362326672#4 -362326672#3 -362326672#2 -362326672#1 362326672#0 362326671#4 362326671#3 362326671#2 362326671#1 362326671#0 22781464 22781459#2 22781459#1 22781459#0 -22781458#1 22781452#1"/>
    </person>
    <person id="ped41" type="ped_pedestrian" depart="41.00">
        <walk edges="20570495#2 164831902#2 164831902#1 164831902#0 463836595 463836596#6 463836596#5 463836596#4 463836596#3 463836596#2 463836596#1 463836596#0 463831575#6 463831575#4 463831575#3 463831575#2 463831575#1 463831575#0 463831576 463831577#2 463831577#0 453981204#1 453981204#0 456391092#3 456391092#2 456391092#1 456391092#0 173966372#2 173966372#1 173966372#0 107696155 545014559#0 -545014559#1 545014559#2"/>
    </person>
    <person id="ped42" type="ped_pedestrian" depart="42.00">
        <walk edges="139098262 47653061 198357033 555001965#2 555001965#1 555001965#0 -404115894#5 -404115894#4 -404115894#3 -404115894#2 -404115894#1 -404115894#0 -166430744 -404115767#1 -404115767#0 467438987 -476051970#2 -23879588#3 -23879588#2 -23879588#1 -23879588#0 -25364870#1 -25364870#0 23879570 25364933 104938753 -316470910#0 -316470910#2 -316470910#3 -316470910#4 -316470910#5 -316470910#6 681064714#4 681064714#3 681064714#2 681064715#3 -422990848#0 -25380803#1.437 -25380803#1 25380803#2 -435437801#0 -454839036#0 454839036#1 475259817 454839034 25113448#0 499060510#9 499060510#8 499060510#7 499060510#6 499060510#5 499060510#4 499060510#3 499060510#2 499060510#0 361991757#12 361991757#11 361991757#10 361991757#9 361991757#8 361991757#7 361991757#6 -361991757#5 -361991757#4 -361991757#3 -361991757#2 -361991757#1 -361991757#0 -462576267#9 -462576267#8 -462576267#7 -462576267#6 -462576267#5"/>
    </person>
    <person id="ped43" type="ped_pedestrian" depart="43.00">
        <walk edges="141020535#3 -26158891#1 26158855#2 26158855#3 26158998#3 -129387434#3"/>
    </person>
    <person id="ped45" type="ped_pedestrian" depart="45.00">
        <walk edges="-822252084#4 25123751#0 499060510#7 499060510#6 499060510#5 499060510#4 499060510#3 499060510#2 499060510#0 361991757#12 361991757#11 361991757#10 361991757#9 361991757#8 361991757#7 361991757#6 -361991757#5 -361991757#4 -361991757#3 -361991757#2 -361991757#1 -361991757#0 -462576267#9 -462576267#8 25163104"/>
    </person>
    <person id="ped46" type="ped_pedestrian" depart="46.00">
        <walk edges="-25167184#2 555505970#9 555505970#10 555505970#11 555505970#12 555505970#13 555505970#14 555505970#15 546129516#0 -546129516#1 -469008663#2 -469008663#1 -454837994#6 -454837994#5 -454837994#4 -454837994#3 -25163317#1 -25163317#0 25161827#13 25161827#14 579069195#2"/>
    </person>
    <person id="ped47" type="ped_pedestrian" depart="47.00">
        <walk edges="469009863#0 469009863#1 475259815 454839034 106344967#0 -454235275#0"/>
    </person>
    <person id="ped48" type="ped_pedestrian" depart="48.00">
        <walk edges="-362326672#3 -362326672#4 -23034971 454193781 454193780 105391589#1 105391589#0 454193776 -105391525 357112222#2 357112222#1 357112222#0 336922873 -165213109 258141583 152977939#7 152977939#8 152977939#9 152977939#10 152977939#11 47652799 22781804#2 474849280 474846526#1 474846526#0"/>
    </person>
    <person id="ped49" type="ped_pedestrian" depart="49.00">
        <walk edges="-164818751#3 26187016#0 26187016#1 -26140174#1 -26187302#0 -26187302#1 -26187302#2 -26187302#3 -26140424#0"/>
    </person>
    <person id="ped50" type="ped_pedestrian" depart="50.00">
        <walk edges="25113343 -25113343 355348693 104938749.528 104938749 25079118#3.190 25079118#3 25079118#2 25079118#1 475097852 810729399#2 810729399#1 810729399#0 316470910#6 316470910#5 316470910#4 316470910#3 316470910#2 316470910#0 104938753 25364933 316470908#0 316470909 23879323 173961719#2 173961719#1 173961719#0 316470523#3 316470523#2 316470523#0 316470522#0 316470522#1 475279655#0 475279655#1 316470524#0 316470524#1 316470524#2 316470524#3 608435179 20906193#0 20906193#1 20906193#2 20906193#3"/>
    </person>
    <person id="ped51" type="ped_pedestrian" depart="51.00">
        <walk edges="-671337357#1 380144785 385913430 -25364508#1 164831924 25365211 164831925 23879469#1"/>
    </person>
    <person id="ped52" type="ped_pedestrian" depart="52.00">
        <walk edges="-434713111#0 434713111#1 -434713110 26528924#2 -45530562#4 -360575548#0 -360575548#1 -573584084#0 -573584084#1 -360575545#0 -360575545#1 117598067 48160860 111626002#1 111626002#0 681064715#3 681064714#2 681064714#3 681064714#4 -316470910#6 316470910#5 316470910#4"/>
    </person>
    <person id="ped53" type="ped_pedestrian" depart="53.00">
        <walk edges="-111626007#7 111626007#6 25073512#0 25073512#1 25073512#2 681064715#0 681064715#1 681064715#2 681064715#3 111626002#0 111626002#1 48160860 452108936 52732456#0 52732456#1 52732456#2 52732456#3 52732456#4 574116981#0"/>
    </person>
    <person id="ped54" type="ped_pedestrian" depart="54.00">
        <walk edges="-47919065#0 47919068"/>
    </person>
    <person id="ped55" type="ped_pedestrian" depart="55.00">
        <walk edges="-248005248#4 -248005248#3 -248005248#1 -248005248#0 455251414#1 455251414#0 455251415 159510745#5 20572650 -266069593#1 -266069593#0 795012494 795012496 795012495 -48114738#2 129433660#0"/>
    </person>
    <person id="ped56" type="ped_pedestrian" depart="56.00">
        <walk edges="25510915 -25379708#5 25510796 657432022#14 462336672 454849470#0 419811083#3 364559678#12 -786923359#1 -786923359#2 364559676#1 -364559676#2 -364559676#3 364559676#4 -364559676#5 -364559676#6"/>
    </person>
    <person id="ped57" type="ped_pedestrian" depart="57.00">
        <walk edges="-26159362#2 -26159362#3 -26159362#4 164831287#8 -164831287#7 -164831287#6 -164831287#5 -164831287#4 -164831287#3 -164831287#2 -164831287#1 -164831287#0"/>
    </person>
    <person id="ped58" type="ped_pedestrian" depart="58.00">
        <walk edges="47919167#0 47919167#1 451899720#1 451899720#0 -248036176#3 -248036176#2 -248036176#1 -248036176#0 191409073#14 -191409073#13 -191409073#12 -191409073#11 -191409073#10 -191409073#9 -191409073#8 -217469148"/>
    </person>
    <person id="ped59" type="ped_pedestrian" depart="59.00">
        <walk edges="120486714#2 -25161639#0 -25161639#1 -25161639#2 -25161639#3 555505976 25161827#0 480217485 568808021#0 568808021#1 568808021#2 480217483#4 480217488#2 546129518#2 546129518#1 546129518#0 546129515#0 546129515#1 25167133#0 25167133#1 25167133#2"/>
    </person>
    <person id="ped60" type="ped_pedestrian" depart="60.00">
        <walk edges="25379757#2 -25379757#0 -25379708#3 -25379708#4 -25379708#5 25510796 -657432022#14 -462336672 -483204482 -483203653 -483203652#0 -483203652#1 -483203652#2 -483203652#3 -454271342#0 -454271342#1 -454271342#2 -454271342#3 -454271342#4 -454271342#5 -454844520 -454844521 -120486714#0 -120486714#1 -120486714#2 -120486714#3 -120486714#4 -120486714#5 -120486714#6 -120486714#7"/>
    </person>
    <person id="ped61" type="ped_pedestrian" depart="61.00">
        <walk edges="424837410#3 424837410#2 -424837410#1 -424837410#0 453533478 477486650 499892372#1 499892370 451896830#2 451896830#1 451896831 451899720#4 451899720#3 451899720#2 451899720#1 451899720#0 451899719 459768280#1 459768280#0 459768278 451902762#6 451902762#5 451902762#4 451902762#3 451902762#2"/>
    </person>
    <person id="ped62" type="ped_pedestrian" depart="62.00">
        <walk edges="210647356#0 -198566118#8 -198566118#7 -198566118#6 -198566118#5 -198566118#4 -198566118#3 -198566118#2 -198566118#1 -210646923 -198566624#1"/>
    </person>
    <person id="ped63" type="ped_pedestrian" depart="63.00">
        <walk edges="165214308#4 165214308#3 165214308#2 165214308#1 165214308#0 453975578 463836596#0 463836596#1 463836596#2 463836596#3"/>
    </person>
    <person id="ped64" type="ped_pedestrian" depart="64.00">
        <walk edges="23889840#1 48114729 453282263 48114733 464116409#1 464116409#0 453281037#1 464116411#1 453289219#0 453289219#1 453289219#2 20904873#5 20904873#4 20904873#3 20904873#2 266069593#8"/>
    </person>
    <person id="ped65" type="ped_pedestrian" depart="65.00">
        <walk edges="124740065 430653198#2 -512911575#1 25378314 -422420305#0 -422420305#1 -422420305#2 -422420305#3 -422420305#4 -422420305#5 -422420305#6 -422420305#7 -422420305#8 -422420305#9 -422420305#10 -422420305#11 -422420305#12 -422420305#13 -422420305#14 -422420305#15 -422420305#16 -422420305#17 -422420305#18 -422420305#19 -422420305#20 -422420305#22 -422420305#23 -422420305#24 -422420305#25 -422420305#26 422420305#27 422420305#28 422420305#29 422420305#30 422420305#31"/>
    </person>
    <person id="ped66" type="ped_pedestrian" depart="66.00">
        <walk edges="22662979 -22662978#1 -22662978#2 -22662978#3 -22662978#4 22662972 24748735#1 24748735#2 483189954 454851080 483189953 23987945#0 23987945#2 23987945#3 23987945#4 23987945#5 23987945#6 23876600#0 23876600#1 316470523#0 316470523#2 316470523#3 173961719#0 173961719#1 173961719#2 23879323 316470909 316470908#0 25364933 104938753 316470910#0 316470910#2 316470910#3 316470910#4 316470910#5 316470910#6 810729399#0 810729399#1 25079178#0 25079178#1 -111626007#3 25079339"/>
    </person>
    <person id="ped67" type="ped_pedestrian" depart="67.00">
        <walk edges="-541428894#1 -541428894#0 26116235#3 26116235#4 26116235#5"/>
    </person>
    <person id="ped68" type="ped_pedestrian" depart="68.00">
        <walk edges="-355390456#4 355390456#3 538590217#0 362326672#2 -362326672#3 22781605#3 22781605#2 -485320138"/>
    </person>
    <person id="ped69" type="ped_pedestrian" depart="69.00">
        <walk edges="87895799 87895798#1 87895798#2 25162940 -25162687#1 25163021#0 25163021#1 25163021#2 25163011#1 483204482 454846702#3 454846702#2 454846702#0 419811083#3 419811083#2 419811083#1 419811083#0 -454837994#0 -454837994#1 -454837994#2 454837994#3 492406950#0 492406950#1 492406947#1 492406949#0 48154684 -555505970#23"/>
    </person>
    <person id="ped70" type="ped_pedestrian" depart="70.00">
        <walk edges="25379176#4 -475237458 -25380042#1 -25380042#2 454229046#1"/>
    </person>
    <person id="ped71" type="ped_pedestrian" depart="71.00">
        <walk edges="25379416#15 25379416#16 25379416#17 25379416#18 25379416#19 454193775 361818248#0 361818248#1 105391525 -165213108 -357112222#1 -357112222#0 -336922873 -165213109 258141583 152977939#7 152977939#8 152977939#9 152977939#10 22790762#1 -22790758#0 -22790758#1 430418211#1 -430418211#2 -430418211#3 -22790758#4 -474852885 -430418225#3 -430418225#2 430418221#1"/>
    </person>
    <person id="ped73" type="ped_pedestrian" depart="73.00">
        <walk edges="360575548#0 -561543775#0 -360575547#0 -360575547#1 -360575547#2 -360575547#3 467443698 555505981 477486650 499892372#1 499892370 451896830#2 451896830#1 451896831 451899720#4 451899720#3 451899720#2 451899720#1 451899720#0 451899719 459768280#1 459768280#0 459768278 451902762#6 451902762#5 451902762#4 451902762#3 451902762#2 451902762#1 451902762#0 451902771 474806499 -217470712#1"/>
    </person>
    <person id="ped74" type="ped_pedestrian" depart="74.00">
        <walk edges="26186931#1 541428901 26140010#2 26140010#1 26140022 18373385#4 -18373385#3 -18373385#2 -18373385#1 -48685117#1 25378314 -422420305#0 -422420305#1 -422420305#2 -422420305#3 -422420305#4 -422420305#5 -422420305#6 -422420305#7 -422420305#8 -422420305#9 25515986#1 25515986#0 25167184#4 25167184#3 25167184#2 25166826#11"/>
    </person>
    <person id="ped75" type="ped_pedestrian" depart="75.00">
        <walk edges="47919185 -316470910#0 -316470910#2 -316470910#3 -316470910#4 -316470910#5 -316470910#6 -810729399#0 -810729399#1 -810729399#2 475097852 25079118#1 25079118#2 25079118#3 25079118#3.190"/>
    </person>
    <person id="ped76" type="ped_pedestrian" depart="76.00">
        <walk edges="316470524#3 608435179 727573056 -462766542#2 -462766542#1 462766542#0 -456390626#0 604324453 266645097#3 266645097#2 266645097#1 266645097#0 604324450 -129433660#0 -48114738#2 795012495 795012496 795012494 -266069593#0 -266069593#1 20572650 159510745#6"/>
    </person>
    <person id="ped77" type="ped_pedestrian" depart="77.00">
        <walk edges="22662872#1 -543705221#6 -543705221#7 -543705221#8 -543705221#9 -543705221#10 -483203690 -483203691 453267746 -483187566 -454850524#0 48114727 48114723 471795205 453282262 199365964#1"/>
    </person>
    <person id="ped78" type="ped_pedestrian" depart="78.00">