<routes><route id="busRoute_100068" edges="393850368#2 393850368#3 463433432#0 463433432#1 25877021#0 25877021#1 25877021#2 25877021#3 25877021#4 341093394#0 341093394#1 341093394#2 341093394#3 470669096#0 470669096#1 470669096#2 470669096#3 131630965#0 131630965#1 131630965#2 131630965#3 131630965#4 463851994 -452615673 -452615672 -464106929#1 -464106929#0 -341093396 -454228586 -341093397 -454228587 -463631214 -470242939 -90829301#1 -90829301#0 463631215#0 463631215#1 90829340 341093399 341093400 460023289 -341093401 -452031255 -341093402 -341093403#1 -341093403#0 -341093406 -341093418 -474622419 -475284565 -341094442 -341094444#2 -341094444#1 -341094444#0 -464121419#2 -464121419#1 -464121419#0 -341094446#7 -341094446#6 -341094446#5 -341094446#4 -341094446#3 -341094446#2 -341094446#1 -341094446#0 -341094449#4 -341094449#3 -341094449#2 -341094449#1 -341094449#0 452456157"><stop busStop="busStop_393850368#2_0" duration="10.00" friendly="1" parking="1" /><stop busStop="busStop_25877021#0_0" duration="10.00" friendly="1" parking="1" /><stop busStop="busStop_25877021#3_0" duration="10.00" friendly="1" parking="1" /><stop busStop="busStop_341093394#3_0" duration="10.00" friendly="1" parking="1" /><stop busStop="busStop_470669096#3_0" duration="10.00" friendly="1" parking="1" /><stop busStop="busStop_131630965#2_0" duration="10.00" friendly="1" parking="1" /><stop busStop="busStop_131630965#4_0" duration="10.00" friendly="1" parking="1" /><stop busStop="busStop_-452615672_0" duration="10.00" friendly="1" parking="1" /><stop busStop="busStop_-464106929#0_0" duration="10.00" friendly="1" parking="1" /><stop busStop="busStop_-341093396_0" duration="10.00" friendly="1" parking="1" /><stop busStop="busStop_-454228586_0" duration="10.00" friendly="1" parking="1" /><stop busStop="busStop_-463631214_0" duration="10.00" friendly="1" parking="1" /><stop busStop="busStop_-90829301#1_0" duration="10.00" friendly="1" parking="1" /><stop busStop="busStop_341093400_0" duration="10.00" friendly="1" parking="1" /><stop busStop="busStop_-341093402_0" duration="10.00" friendly="1" parking="1" /><stop busStop="busStop_-341093403#0_0" duration="10.00" friendly="1" parking="1" /><stop busStop="busStop_-341093406_0" duration="10.00" friendly="1" parking="1" /><stop busStop="busStop_-341093418_0" duration="10.00" friendly="1" parking="1" /><stop busStop="busStop_-341094442_0" duration="10.00" friendly="1" parking="1" /><stop busStop="busStop_-341094444#0_0" duration="10.00" friendly="1" parking="1" /><stop busStop="busStop_-341094446#6_0" duration="10.00" friendly="1" parking="1" /><stop busStop="busStop_-341094446#0_0" duration="10.00" friendly="1" parking="1" /><stop busStop="busStop_-341094449#0_0" duration="10.00" friendly="1" parking="1" /><stop busStop="busStop_452456157_0" duration="10.00" friendly="1" parking="1" /></route><route id="busRoute_100067" edges="393858373#0 393858373#1 393858373#2 393858373#3 393858373#4 393859943 527171716#0 527171716#1 609009570#0 609009570#1 164972322#0 164972322#1 164972322#2 20441244#0 20441244#1 20441244#2 20441244#3 20441244#4 20441244#5 20441244#6 341094451 393856392 341094449#0 341094449#1 341094449#2 341094449#3 341094449#4 341094446#0 341094446#1 341094446#2 341094446#3 341094446#4 341094446#5 341094446#6 341094446#7 464121419#0 464121419#1 464121419#2 341094444#0 341094444#1 341094444#2 341094442 475284565 474622419 341093418 341093406 341093403#0 341093403#1 341093402 452031255 341093401 465125692 465125694#0 465125694#1 465125691 465125690 90829301#0 90829301#1 470242939 463631214 454228587 341093397 454228586 341093396 464106929#0 464106929#1 452615672 452615673 131630966 -393865864 -463851995 393866982#0 393866982#1 393866982#2 393866982#3 393866982#4 393866982#5 393866982#6 393866982#7 393866982#8 393866982#9 393866982#10 393866982#11 393866982#12 393866982#13 728796868 393867357#0 393867357#1 728798319 393674972#0 393674972#1 393674972#2 393675016#0 393675016#1"><stop busStop="busStop_393858373#0_0" duration="10.00" friendly="1" parking="1" /><stop busStop="busStop_164972322#1_0" duration="10.00" friendly="1" parking="1" /><stop busStop="busStop_20441244#5_0" duration="10.00" friendly="1" parking="1" /><stop busStop="busStop_341094451_0" duration="10.00" friendly="1" parking="1" /><stop busStop="busStop_341094449#1_0" duration="10.00" friendly="1" parking="1" /><stop busStop="busStop_341094449#4_0" duration="10.00" friendly="1" parking="1" /><stop busStop="busStop_341094446#5_0" duration="10.00" friendly="1" parking="1" /><stop busStop="busStop_464121419#2_0" duration="10.00" friendly="1" parking="1" /><stop busStop="busStop_341094444#2_0" duration="10.00" friendly="1" parking="1" /><stop busStop="busStop_474622419_0" duration="10.00" friendly="1" parking="1" /><stop busStop="busStop_341093418_0" duration="10.00" friendly="1" parking="1" /><stop busStop="busStop_341093406_0" duration="10.00" friendly="1" parking="1" /><stop busStop="busStop_341093403#1_0" duration="10.00" friendly="1" parking="1" /><stop busStop="busStop_465125692_0" duration="10.00" friendly="1" parking="1" /><stop busStop="busStop_465125690_0" duration="10.00" friendly="1" parking="1" /><stop busStop="busStop_470242939_0" duration="10.00" friendly="1" parking="1" /><stop busStop="busStop_454228587_0" duration="10.00" friendly="1" parking="1" /><stop busStop="busStop_454228586_0" duration="10.00" friendly="1" parking="1" /><stop busStop="busStop_341093396_0" duration="10.00" friendly="1" parking="1" /><stop busStop="busStop_464106929#1_0" duration="10.00" friendly="1" parking="1" /><stop busStop="busStop_452615673_0" duration="10.00" friendly="1" parking="1" /><stop busStop="busStop_-463851995_0" duration="10.00" friendly="1" parking="1" /><stop busStop="busStop_393866982#2_0" duration="10.00" friendly="1" parking="1" /><stop busStop="busStop_393866982#5_0" duration="10.00" friendly="1" parking="1" /><stop busStop="busStop_393866982#7_0" duration="10.00" friendly="1" parking="1" /><stop busStop="busStop_393866982#10_0" duration="10.00" friendly="1" parking="1" /><stop busStop="busStop_393866982#11_0" duration="10.00" friendly="1" parking="1" /><stop busStop="busStop_393866982#13_0" duration="10.00" friendly="1" parking="1" /><stop busStop="busStop_728796868_0" duration="10.00" friendly="1" parking="1" /><stop busStop="busStop_393867357#1_0" duration="10.00" friendly="1" parking="1" /><stop busStop="busStop_393675016#1_0" duration="10.00" friendly="1" parking="1" /></route><route id="busRoute_110129" edges="393872217#1 411198616#0 411198616#1 -393872217#1 -393872217#0 393872214 433808921 4872830 393872765#0 393872765#1 393872824#0 393872824#1 118255253 -636899611#8 -636899611#7 -636899611#6 -636899611#5 -636899611#4 -636899611#3 -636899611#2 -636899611#1 -636899611#0 -4886357 -697467547 -606294779 -602901214 561497223#0 561497223#1 -410948561 -410948562#2 -410948562#1 -410948562#0 182756791 -609573123 -182756781 -600826245 51865388#0 51865388#1 4886363 -393885897 -453713154 -111771063 -453713155 -465195712 -480212640 -825945731 -465195710 -465195711#1 -465195711#0 -465195709#1 -465195709#0 -4687363#1 -4687363#0 -465183712 -337509255#4 -337509255#3 -337509255#2 -337509255#1 -337509255#0 -463886948#1 -463886948#0 -452096883 -725190286#1 -725190286#0 -452096884#3 -452096884#2 -452096884#1 -452096884#0 -452049817#1 -452049817#0 -452049816#1 -452049816#0 -393792173#1 -393792173#0 -4320351#2 -4320351#1 -4320351#0 452098812 452098813#0 452098813#1 8140255#0 8140255#1 8140255#2 452101821 463886942 463886941 452101823 393873618#0 393873618#1 393873618#2 393873618#3 393873618#4 393873618#5"><stop busStop="busStop_393872217#1_0" duration="10.00" friendly="1" parking="1" /><stop busStop="busStop_-393872217#1_0" duration="10.00" friendly="1" parking="1" /><stop busStop="busStop_-393872217#0_0" duration="10.00" friendly="1" parking="1" /><stop busStop="busStop_433808921_0" duration="10.00" friendly="1" parking="1" /><stop busStop="busStop_393872824#0_0" duration="10.00" friendly="1" parking="1" /><stop busStop="busStop_-636899611#8_0" duration="10.00" friendly="1" parking="1" /><stop busStop="busStop_-636899611#4_0" duration="10.00" friendly="1" parking="1" /><stop busStop="busStop_-4886357_0" duration="10.00" friendly="1" parking="1" /><stop busStop="busStop_-410948561_0" duration="10.00" friendly="1" parking="1" /><stop busStop="busStop_-111771063_0" duration="10.00" friendly="1" parking="1" /><stop busStop="busStop_-453713155_0" duration="10.00" friendly="1" parking="1" /><stop busStop="busStop_-465195711#1_0" duration="10.00" friendly="1" parking="1" /><stop busStop="busStop_-4687363#0_0" duration="10.00" friendly="1" parking="1" /><stop busStop="busStop_-337509255#1_0" duration="10.00" friendly="1" parking="1" /><stop busStop="busStop_-452096884#3_0" duration="10.00" friendly="1" parking="1" /><stop busStop="busStop_-452049817#1_0" duration="10.00" friendly="1" parking="1" /><stop busStop="busStop_-4320351#1_0" duration="10.00" friendly="1" parking="1" /><stop busStop="busStop_463886942_0" duration="10.00" friendly="1" parking="1" /><stop busStop="busStop_393873618#2_0" duration="10.00" friendly="1" parking="1" /><stop busStop="busStop_393873618#5_0" duration="10.00" friendly="1" parking="1" /></route><route id="busRoute_110131" edges="450927956 463673422#0 463673422#1 463673422#2 20187993 450934831 466895706 463670133#0 463670133#1 455707567 393872214 433808921 4872830 393872765#0 393872765#1 393872824#0 393872824#1 118255253 -636899611#8 -636899611#7 -636899611#6 -636899611#5 -636899611#4 -636899611#3 -636899611#2 -636899611#1 -636899611#0 -4886357 -697467547 -606294779 -602901214 561497223#0 561497223#1 -410948561 -410948562#2 -410948562#1 -410948562#0 182756791 -609573123 -182756781 -600826245 51865388#0 51865388#1 4886363 -393885897 -453713154 -111771063 -453713155 -465195712 -480212640 -825945731 -465195710 -465195711#1 -465195711#0 -465195709#1 -465195709#0 -4687363#1 -4687363#0 -465183712 -337509255#4 -337509255#3 -337509255#2 -337509255#1 -337509255#0 -463886948#1 -463886948#0 -452096883 -725190286#1 -725190286#0 -452096884#3 -452096884#2 -452096884#1 -452096884#0 -452049817#1 -452049817#0 -452049816#1 -452049816#0 -393792173#1 -393792173#0 -4320351#2 -4320351#1 -4320351#0 452098812 452098813#0 452098813#1 8140255#0 8140255#1 8140255#2 452101821 463886942 463886941 452101823 393873618#0 393873618#1 393873618#2 393873618#3 393873618#4 393873618#5"><stop busStop="busStop_450927956_0" duration="10.00" friendly="1" parking="1" /><stop busStop="busStop_463670133#0_0" duration="10.00" friendly="1" parking="1" /><stop busStop="busStop_455707567_0" duration="10.00" friendly="1" parking="1" /><stop busStop="busStop_433808921_0" duration="10.00" friendly="1" parking="1" /><stop busStop="busStop_393872824#0_0" duration="10.00" friendly="1" parking="1" /><stop busStop="busStop_-636899611#8_0" duration="10.00" friendly="1" parking="1" /><stop busStop="busStop_-636899611#4_0" duration="10.00" friendly="1" parking="1" /><stop busStop="busStop_-4886357_0" duration="10.00" friendly="1" parking="1" /><stop busStop="busStop_-410948561_0" duration="10.00" friendly="1" parking="1" /><stop busStop="busStop_-111771063_0" duration="10.00" friendly="1" parking="1" /><stop busStop="busStop_-453713155_0" duration="10.00" friendly="1" parking="1" /><stop busStop="busStop_-465195711#1_0" duration="10.00" friendly="1" parking="1" /><stop busStop="busStop_-4687363#0_0" duration="10.00" friendly="1" parking="1" /><stop busStop="busStop_-337509255#1_0" duration="10.00" friendly="1" parking="1" /><stop busStop="busStop_-452096884#3_0" duration="10.00" friendly="1" parking="1" /><stop busStop="busStop_-452049817#1_0" duration="10.00" friendly="1" parking="1" /><stop busStop="busStop_-4320351#1_0" duration="10.00" friendly="1" parking="1" /><stop busStop="busStop_463886942_0" duration="10.00" friendly="1" parking="1" /><stop busStop="busStop_393873618#2_0" duration="10.00" friendly="1" parking="1" /><stop busStop="busStop_393873618#5_0" duration="10.00" friendly="1" parking="1" /></route><route id="busRoute_110130" edges="734285083#2 734285083#3 734285083#4 -393873277 -452101823 -463886941 -463886942 -452101821 -8140255#2 -8140255#1 -8140255#0 -452098813#1 -452098813#0 -452098812 4320351#0 4320351#1 4320351#2 393792173#0 393792173#1 452049816#0 452049816#1 452049817#0 452049817#1 452096884#0 452096884#1 452096884#2 452096884#3 725190286#0 725190286#1 452096883 463886948#0 463886948#1 337509255#0 337509255#1 337509255#2 337509255#3 337509255#4 465183712 4687363#0 4687363#1 465195709#0 465195709#1 465195711#0 465195711#1 465195710 825945731 480212640 465195712 453713155 111771063 453713154 393885897 46699971 46699969 46699970#0 46699970#1 600826245 182756781 609573123 182756782 410948562#0 410948562#1 410948562#2 410948561 561497222 602901214 606294779 697467547 4886357 636899611#0 636899611#1 636899611#2 636899611#3 636899611#4 636899611#5 636899611#6 636899611#7 636899611#8 79875414#0 79875414#1 459190756 725192433#0 725192433#1 433808920#0 433808920#1 393798979 433241183 455707566 393798974 466895707 466895705#0"><stop busStop="busStop_734285083#2_0" duration="10.00" friendly="1" parking="1" /><stop busStop="busStop_-393873277_0" duration="10.00" friendly="1" parking="1" /><stop busStop="busStop_-463886941_0" duration="10.00" friendly="1" parking="1" /><stop busStop="busStop_-452101821_0" duration="10.00" friendly="1" parking="1" /><stop busStop="busStop_-452098813#0_0" duration="10.00" friendly="1" parking="1" /><stop busStop="busStop_452049816#0_0" duration="10.00" friendly="1" parking="1" /><stop busStop="busStop_452096884#2_0" duration="10.00" friendly="1" parking="1" /><stop busStop="busStop_463886948#1_0" duration="10.00" friendly="1" parking="1" /><stop busStop="busStop_465183712_0" duration="10.00" friendly="1" parking="1" /><stop busStop="busStop_465195709#0_0" duration="10.00" friendly="1" parking="1" /><stop busStop="busStop_453713155_0" duration="10.00" friendly="1" parking="1" /><stop busStop="busStop_393885897_0" duration="10.00" friendly="1" parking="1" /><stop busStop="busStop_410948561_0" duration="10.00" friendly="1" parking="1" /><stop busStop="busStop_4886357_0" duration="10.00" friendly="1" parking="1" /><stop busStop="busStop_636899611#1_0" duration="10.00" friendly="1" parking="1" /><stop busStop="busStop_636899611#6_0" duration="10.00" friendly="1" parking="1" /><stop busStop="busStop_433808920#1_0" duration="10.00" friendly="1" parking="1" /><stop busStop="busStop_433241183_0" duration="10.00" friendly="1" parking="1" /><stop busStop="busStop_466895705#0_0" duration="10.00" friendly="1" parking="1" /></route><route id="busRoute_110128" edges="734285083#2 734285083#3 734285083#4 -393873277 -452101823 -463886941 -463886942 -452101821 -8140255#2 -8140255#1 -8140255#0 -452098813#1 -452098813#0 -452098812 4320351#0 4320351#1 4320351#2 393792173#0 393792173#1 452049816#0 452049816#1 452049817#0 452049817#1 452096884#0 452096884#1 452096884#2 452096884#3 725190286#0 725190286#1 452096883 463886948#0 463886948#1 337509255#0 337509255#1 337509255#2 337509255#3 337509255#4 465183712 4687363#0 4687363#1 465195709#0 465195709#1 465195711#0 465195711#1 465195710 825945731 480212640 465195712 453713155 111771063 453713154 393885897 46699971 46699969 46699970#0 46699970#1 600826245 182756781 609573123 182756782 410948562#0 410948562#1 410948562#2 410948561 561497222 602901214 606294779 697467547 4886357 636899611#0 636899611#1 636899611#2 636899611#3 636899611#4 636899611#5 636899611#6 636899611#7 636899611#8 79875414#0 79875414#1 459190756 725192433#0 725192433#1 433808920#0 433808920#1 393798979 433241183 165217778 393872217#0 393872217#1 411198616#0"><stop busStop="busStop_734285083#2_0" duration="10.00" friendly="1" parking="1" /><stop busStop="busStop_-393873277_0" duration="10.00" friendly="1" parking="1" /><stop busStop="busStop_-463886941_0" duration="10.00" friendly="1" parking="1" /><stop busStop="busStop_-452101821_0" duration="10.00" friendly="1" parking="1" /><stop busStop="busStop_-452098813#0_0" duration="10.00" friendly="1" parking="1" /><stop busStop="busStop_452049816#0_0" duration="10.00" friendly="1" parking="1" /><stop busStop="busStop_452096884#2_0" duration="10.00" friendly="1" parking="1" /><stop busStop="busStop_463886948#1_0" duration="10.00" friendly="1" parking="1" /><stop busStop="busStop_465183712_0" duration="10.00" friendly="1" parking="1" /><stop busStop="busStop_465195709#0_0" duration="10.00" friendly="1" parking="1" /><stop busStop="busStop_453713155_0" duration="10.00" friendly="1" parking="1" /><stop busStop="busStop_393885897_0" duration="10.00" friendly="1" parking="1" /><stop busStop="busStop_410948561_0" duration="10.00" friendly="1" parking="1" /><stop busStop="busStop_4886357_0" duration="10.00" friendly="1" parking="1" /><stop busStop="busStop_636899611#1_0" duration="10.00" friendly="1" parking="1" /><stop busStop="busStop_636899611#6_0" duration="10.00" friendly="1" parking="1" /><stop busStop="busStop_433808920#1_0" duration="10.00" friendly="1" parking="1" /><stop busStop="busStop_433241183_0" duration="10.00" friendly="1" parking="1" /><stop busStop="busStop_393872217#0_0" duration="10.00" friendly="1" parking="1" /><stop busStop="busStop_411198616#0_0" duration="10.00" friendly="1" parking="1" /></route><route id="busRoute_120090" edges="93897517#1 -93897517#1 -93897517#0 -94047310#5 -94047310#4 -94047310#3 -94047310#2 -94047310#1 -94047310#0 94047315 43068111#0 43068111#1 43068111#2 43068111#3 43068111#4 43068111#5 153051858 466926791 153051854#0 153051854#1 153051854#2 153051854#3 32755804#0 32755804#1 32755804#2 32755804#3 23033039#0 23033039#1 23033039#2 -23033039#2 23033039#2 94047305#0 94047305#1 127570938#0 127570938#1 127570936#0 127570936#1 127570936#2 127570936#3 127570936#4 127570936#5 127570936#6 127570936#7 127570936#8 127570936#9 127570936#10 127570936#11 127570936#12 127570937#0 127570937#1 605518528#0 605518528#1 605518531#0 605518531#1 47520038#2 47520038#3 47520038#4 23033011 127570969#0 127570969#1 127570969#2 127570969#3 127570969#4 127570969#5 127570969#6 466923184 466923183 603184471#0 603184471#1 603184471#2 165265056#0 101804185#0 101804185#1 101804185#2 101804185#3 101804185#4 629516206#0 629516206#1 93829616#1 93829582 562469383#0 562469383#1 562469383#2 674691323 -674691323 -562469383#2 -562469383#1 -562469383#0 93829514 93829661 636344935 94839673 94839674 677782928 518953768#1 594251853 594251852 39179678 641600041#0 641600041#1 726172727 726172725 692642798 545129724 429919713#0 429919713#1 429919713#2 429919713#3 429919713#4 429919713#5 429919713#6 429919713#7 429919713#8 429919713#9 429919713#10 429919713#11 429919713#12 429919713#13 429919713#14 429919713#15 456509227"><stop busStop="busStop_93897517#1_0" duration="10.00" friendly="1" parking="1" /><stop busStop="busStop_-94047310#2_0" duration="10.00" friendly="1" parking="1" /><stop busStop="busStop_43068111#1_0" duration="10.00" friendly="1" parking="1" /><stop busStop="busStop_43068111#2_0" duration="10.00" friendly="1" parking="1" /><stop busStop="busStop_43068111#4_0" duration="10.00" friendly="1" parking="1" /><stop busStop="busStop_153051854#0_0" duration="10.00" friendly="1" parking="1" /><stop busStop="busStop_153051854#3_0" duration="10.00" friendly="1" parking="1" /><stop busStop="busStop_32755804#2_0" duration="10.00" friendly="1" parking="1" /><stop busStop="busStop_-23033039#2_0" duration="10.00" friendly="1" parking="1" /><stop busStop="busStop_23033039#2_0" duration="10.00" friendly="1" parking="1" /><stop busStop="busStop_127570936#1_0" duration="10.00" friendly="1" parking="1" /><stop busStop="busStop_127570936#2_0" duration="10.00" friendly="1" parking="1" /><stop busStop="busStop_127570936#4_0" duration="10.00" friendly="1" parking="1" /><stop busStop="busStop_127570936#7_0" duration="10.00" friendly="1" parking="1" /><stop busStop="busStop_127570936#11_0" duration="10.00" friendly="1" parking="1" /><stop busStop="busStop_605518531#0_0" duration="10.00" friendly="1" parking="1" /><stop busStop="busStop_127570969#1_0" duration="10.00" friendly="1" parking="1" /><stop busStop="busStop_127570969#2_0" duration="10.00" friendly="1" parking="1" /><stop busStop="busStop_127570969#5_0" duration="10.00" friendly="1" parking="1" /><stop busStop="busStop_101804185#0_0" duration="10.00" friendly="1" parking="1" /><stop busStop="busStop_101804185#2_0" duration="10.00" friendly="1" parking="1" /><stop busStop="busStop_674691323_0" duration="10.00" friendly="1" parking="1" /><stop busStop="busStop_429919713#0_0" duration="10.00" friendly="1" parking="1" /><stop busStop="busStop_429919713#3_0" duration="10.00" friendly="1" parking="1" /><stop busStop="busStop_429919713#6_0" duration="10.00" friendly="1" parking="1" /><stop busStop="busStop_456509227_0" duration="10.00" friendly="1" parking="1" /></route><route id="busRoute_120089" edges="164827367#6 164827367#7 164827367#8 164827367#9 475241415#7 23034882#5 23034882#6 23034882#7 23034882#8 23034882#9 23034882#10 23034882#11 23034882#12 555004446#21 555004446#22 555004446#23 555004446#24 555004446#25 23027033#0 23027033#1 -23027034 23027062#0 23027062#1 23027062#2 23027062#3 23027062#4 23027062#5 23027062#6 23027062#7 561499303 429919713#4 157800440 23027062#7 23027062#8 23027062#9 23027062#10 429919712 594774733#0 594774733#1 679890244 633924446 40641510#0 518953770 547698704 43068107#0 43068107#1 47520038#8 47520038#0 605518534#0 605518534#1 605518524 48432616#0 48432616#1 -127570936#12 -127570936#11 -127570936#10 -127570936#9 -127570936#8 -127570936#7 -127570936#6 -127570936#5 -127570936#4 -127570936#3 -127570936#2 -127570936#1 -127570936#0 29257885#0 29257885#1 29257885#2 -94047305#1 -94047305#0 -23033039#2 -23033039#1 -23033039#0 23033037#0 23033037#1 19854017#6 19854017#7 19854017#8 19854017#9 153051859 153051855#0 153051855#1 153051855#2 153051855#3 153051855#4 94047330 94047310#0 94047310#1 94047310#2 94047310#3 94047310#4 94047310#5"><stop busStop="busStop_164827367#6_0" duration="10.00" friendly="1" parking="1" /><stop busStop="busStop_23034882#8_0" duration="10.00" friendly="1" parking="1" /><stop busStop="busStop_23034882#10_0" duration="10.00" friendly="1" parking="1" /><stop busStop="busStop_23027062#0_0" duration="10.00" friendly="1" parking="1" /><stop busStop="busStop_23027062#5_0" duration="10.00" friendly="1" parking="1" /><stop busStop="busStop_23027062#7_0" duration="10.00" friendly="1" parking="1" /><stop busStop="busStop_429919713#4_0" duration="10.00" friendly="1" parking="1" /><stop busStop="busStop_23027062#10_0" duration="10.00" friendly="1" parking="1" /><stop busStop="busStop_605518534#1_0" duration="10.00" friendly="1" parking="1" /><stop busStop="busStop_-127570936#10_0" duration="10.00" friendly="1" parking="1" /><stop busStop="busStop_-127570936#9_0" duration="10.00" friendly="1" parking="1" /><stop busStop="busStop_-127570936#6_0" duration="10.00" friendly="1" parking="1" /><stop busStop="busStop_-127570936#2_0" duration="10.00" friendly="1" parking="1" /><stop busStop="busStop_-127570936#1_0" duration="10.00" friendly="1" parking="1" /><stop busStop="busStop_-94047305#1_0" duration="10.00" friendly="1" parking="1" /><stop busStop="busStop_23033037#1_0" duration="10.00" friendly="1" parking="1" /><stop busStop="busStop_19854017#6_0" duration="10.00" friendly="1" parking="1" /><stop busStop="busStop_19854017#8_0" duration="10.00" friendly="1" parking="1" /><stop busStop="busStop_153051855#1_0" duration="10.00" friendly="1" parking="1" /><stop busStop="busStop_153051855#3_0" duration="10.00" friendly="1" parking="1" /><stop busStop="busStop_153051855#4_0" duration="10.00" friendly="1" parking="1" /><stop busStop="busStop_94047310#1_0" duration="10.00" friendly="1" parking="1" /><stop busStop="busStop_94047310#5_0" duration="10.00" friendly="1" parking="1" /></route><route id="busRoute_130022" edges="464944656 329918648#0 329918648#1 464944658 464944659 454867299 -236941378#1 -236941378#0 -454851470 -354345385 -451896406 -354343233 -452027364 354342614 -354348775 -354349892#1 -354349892#0 -160091649#1 -160091649#0 164974762#0 164974762#1 452037085 452037089#0 452037089#1 452037089#2 462766321 160091646#0 160091646#1 160091646#2 465370552#0 465370552#1 354358328 160091637 327142509#0 327142509#1 327142509#2 327142509#3 20292599 732382922"><stop busStop="busStop_464944656_0" duration="10.00" friendly="1" parking="1" /><stop busStop="busStop_-236941378#1_0" duration="10.00" friendly="1" parking="1" /><stop busStop="busStop_-454851470_0" duration="10.00" friendly="1" parking="1" /><stop busStop="busStop_-451896406_0" duration="10.00" friendly="1" parking="1" /><stop busStop="busStop_-452027364_0" duration="10.00" friendly="1" parking="1" /><stop busStop="busStop_354342614_0" duration="10.00" friendly="1" parking="1" /><stop busStop="busStop_-354348775_0" duration="10.00" friendly="1" parking="1" /><stop busStop="busStop_-354349892#0_0" duration="10.00" friendly="1" parking="1" /><stop busStop="busStop_-160091649#1_0" duration="10.00" friendly="1" parking="1" /><stop busStop="busStop_452037085_0" duration="10.00" friendly="1" parking="1" /><stop busStop="busStop_465370552#0_0" duration="10.00" friendly="1" parking="1" /><stop busStop="busStop_354358328_0" duration="10.00" friendly="1" parking="1" /><stop busStop="busStop_20292599_0" duration="10.00" friendly="1" parking="1" /><stop busStop="busStop_732382922_0" duration="10.00" friendly="1" parking="1" /></route><route id="busRoute_130023" edges="452645967#3 452645967#4 452645967#5 462766326 462766325#0 462766325#1 462766325#2 462766324 462766320 452037086#0 452037086#1 452037087 24424706#0 24424706#1 160091649#0 160091649#1 354349892#0 354349892#1 354348775 -354342614 452027364 354343233 451896406 354345385 454851470 236941378#0 236941378#1 -454867299 -464944659 -464944658 -329918648#1 -329918648#0"><stop busStop="busStop_452645967#3_0" duration="10.00" friendly="1" parking="1" /><stop busStop="busStop_452037087_0" duration="10.00" friendly="1" parking="1" /><stop busStop="busStop_24424706#0_0" duration="10.00" friendly="1" parking="1" /><stop busStop="busStop_354349892#1_0" duration="10.00" friendly="1" parking="1" /><stop busStop="busStop_354348775_0" duration="10.00" friendly="1" parking="1" /><stop busStop="busStop_354343233_0" duration="10.00" friendly="1" parking="1" /><stop busStop="busStop_354345385_0" duration="10.00" friendly="1" parking="1" /><stop busStop="busStop_236941378#1_0" duration="10.00" friendly="1" parking="1" /><stop busStop="busStop_-329918648#0_0" duration="10.00" friendly="1" parking="1" /></route><route id="busRoute_140060" edges="454844394#1 561718399 -133750660#3 -133750660#2 -133750660#1 -133750660#0 165265050#0 165265050#1 165265050#2 165265050#3 165265050#4 165265050#5 165265050#6 537574329 329795978#0 329795978#1 329795978#2 329795978#3 458269906 403870862#0 403870862#1 458269905 218948502 458450992 19977261#0 19977261#1 107237433#0 107237433#1 107237433#2 107237433#3 680297905#0 680297905#1 680297905#2 680297905#3 680297905#4 680297905#5 657054251#0 657054251#1 745396076 19937708 734285083#0 734285083#1 734285083#2 734285083#3 734285083#4 393786494#0 393786494#1 393786494#2 393786494#3 393786494#4 464057451 464057450#0 464057450#1 464057450#2 463886934#0 463886934#1 463886934#2 463886934#3 452385240#0 452385240#1 452385241#0 452385241#1 452385241#2 727853363 537573930#0 537573930#1 537573930#2 330300633#0 330300633#1 727573054#0 727573054#1 476497924#0"><stop busStop="busStop_454844394#1_0" duration="10.00" friendly="1" parking="1" /><stop busStop="busStop_-133750660#1_0" duration="10.00" friendly="1" parking="1" /><stop busStop="busStop_165265050#1_0" duration="10.00" friendly="1" parking="1" /><stop busStop="busStop_329795978#1_0" duration="10.00" friendly="1" parking="1" /><stop busStop="busStop_458269906_0" duration="10.00" friendly="1" parking="1" /><stop busStop="busStop_403870862#1_0" duration="10.00" friendly="1" parking="1" /><stop busStop="busStop_458269905_0" duration="10.00" friendly="1" parking="1" /><stop busStop="busStop_458450992_0" duration="10.00" friendly="1" parking="1" /><stop busStop="busStop_107237433#0_0" duration="10.00" friendly="1" parking="1" /><stop busStop="busStop_680297905#1_0" duration="10.00" friendly="1" parking="1" /><stop busStop="busStop_680297905#2_0" duration="10.00" friendly="1" parking="1" /><stop busStop="busStop_680297905#4_0" duration="10.00" friendly="1" parking="1" /><stop busStop="busStop_657054251#0_0" duration="10.00" friendly="1" parking="1" /><stop busStop="busStop_734285083#0_0" duration="10.00" friendly="1" parking="1" /><stop busStop="busStop_734285083#2_0" duration="10.00" friendly="1" parking="1" /><stop busStop="busStop_734285083#4_0" duration="10.00" friendly="1" parking="1" /><stop busStop="busStop_393786494#1_0" duration="10.00" friendly="1" parking="1" /><stop busStop="busStop_464057450#0_0" duration="10.00" friendly="1" parking="1" /><stop busStop="busStop_463886934#0_0" duration="10.00" friendly="1" parking="1" /><stop busStop="busStop_476497924#0_0" duration="10.00" friendly="1" parking="1" /></route><route id="busRoute_140059" edges="330301180#1 330301180#2 463886936#0 463886936#1 330253556#0 330253556#1 330253556#2 330253556#3 330253556#4 330253556#5 393873618#0 393873618#1 393873618#2 393873618#3 393873618#4 393873618#5 393785532#0 393785532#1 463886960#0 463886960#1 680297906#0 680297906#1 463886959#0 463886959#1 463886959#2 463886959#3 463886959#4 818614554#0 818614554#1 -19977261#1 -19977261#0 -458450992 -218948502 -458269905 -403870862#1 -403870862#0 -458269906 -329795978#3 -329795978#2 -329795978#1 -329795978#0 537574330#0 537574330#1 537574330#2 537574330#3 537574330#4 454245380 453999956#0 453999956#1 329989226#0 329989226#1 329989226#2 727853364#0 727853364#1 727853364#2 727853364#3 727853364#4 396642609#0 396642609#1 396642609#2 396642609#3 396642608#0 396642608#1 4320485#0 4320