<routes><busStop id="busStop_27650536#1_0" lane="27650536#1_0" friendlyPos="1" endPos="-5.00" startPos="-26.00"><param key="routes_id" value="18" /><param key="position" value="33441.375375 21795.285753" /></busStop><busStop id="busStop_507342062#1_0" lane="507342062#1_0" friendlyPos="1" endPos="-5.00" startPos="-26.00"><param key="routes_id" value="90" /><param key="position" value="27206.299812 6844.030903" /></busStop><busStop id="busStop_507342062#0_0" lane="507342062#0_0" friendlyPos="1" endPos="-5.00" startPos="-26.00"><param key="routes_id" value="90" /><param key="position" value="27119.987290 6668.639977" /></busStop><busStop id="busStop_315528796_0" lane="315528796_0" friendlyPos="1" endPos="-5.00" startPos="-26.00"><param key="routes_id" value="92,372" /><param key="position" value="26603.369280 12731.341553" /></busStop><busStop id="busStop_460486076_0" lane="460486076_0" friendlyPos="1" endPos="-5.00" startPos="-26.00"><param key="routes_id" value="136" /><param key="position" value="33153.657358 18102.401041" /></busStop><busStop id="busStop_454272333_0" lane="454272333_0" friendlyPos="1" endPos="-5.00" startPos="-26.00"><param key="routes_id" value="27,427" /><param key="position" value="31694.769378 17104.627876" /></busStop><busStop id="busStop_329689955#0_0" lane="329689955#0_0" friendlyPos="1" endPos="-5.00" startPos="-26.00"><param key="routes_id" value="136,353" /><param key="position" value="33001.864303 18414.830183" /></busStop><busStop id="busStop_59878182#1_0" lane="59878182#1_0" friendlyPos="1" endPos="-5.00" startPos="-26.00"><param key="routes_id" value="136,353" /><param key="position" value="32966.613739 18404.301819" /></busStop><busStop id="busStop_366056227#3_0" lane="366056227#3_0" friendlyPos="1" endPos="-5.00" startPos="-26.00"><param key="routes_id" value="18" /><param key="position" value="33327.943239 21945.035364" /></busStop><busStop id="busStop_316470524#3_0" lane="316470524#3_0" friendlyPos="1" endPos="-5.00" startPos="-26.00"><param key="routes_id" value="51" /><param key="position" value="25994.611146 6122.437571" /></busStop><busStop id="busStop_-4886366#1_0" lane="-4886366#1_0" friendlyPos="1" endPos="-5.00" startPos="-26.00"><param key="routes_id" value="80,129,365,480" /><param key="position" value="31199.686536 12358.567416" /></busStop><busStop id="busStop_-465420823#0_0" lane="-465420823#0_0" friendlyPos="1" endPos="-5.00" startPos="-26.00"><param key="routes_id" value="80,129,365,480" /><param key="position" value="31041.734853 12457.449003" /></busStop><busStop id="busStop_-535385902#0_0" lane="-535385902#0_0" friendlyPos="1" endPos="-5.00" startPos="-26.00"><param key="routes_id" value="97" /><param key="position" value="32063.129357 16051.455996" /></busStop><busStop id="busStop_-4886242#9_0" lane="-4886242#9_0" friendlyPos="1" endPos="-5.00" startPos="-26.00"><param key="routes_id" value="51,119,368" /><param key="position" value="28036.129846 12215.374668" /></busStop><busStop id="busStop_-562481866_0" lane="-562481866_0" friendlyPos="1" endPos="-5.00" startPos="-26.00"><param key="routes_id" value="80,129,365,480" /><param key="position" value="30926.240976 12532.859994" /></busStop><busStop id="busStop_-598964318#10_0" lane="-598964318#10_0" friendlyPos="1" endPos="-5.00" startPos="-26.00"><param key="routes_id" value="160" /><param key="position" value="26821.762747 12913.316656" /></busStop><busStop id="busStop_393733164#0_0" lane="393733164#0_0" friendlyPos="1" endPos="-5.00" startPos="-26.00"><param key="routes_id" value="777" /><param key="position" value="34418.252699 12656.618044" /></busStop><busStop id="busStop_20928906#7_0" lane="20928906#7_0" friendlyPos="1" endPos="-5.00" startPos="-26.00"><param key="routes_id" value="86,186,430,486" /><param key="position" value="36465.941249 31278.361887" /></busStop><busStop id="busStop_20928906#8_0" lane="20928906#8_0" friendlyPos="1" endPos="-5.00" startPos="-26.00"><param key="routes_id" value="86,186,486" /><param key="position" value="36512.929336 31506.631205" /></busStop><busStop id="busStop_-20928906#9_0" lane="-20928906#9_0" friendlyPos="1" endPos="-5.00" startPos="-26.00"><param key="routes_id" value="86,186,486" /><param key="position" value="36506.818920 31533.412371" /></busStop><busStop id="busStop_30176403#1_0" lane="30176403#1_0" friendlyPos="1" endPos="-5.00" startPos="-26.00"><param key="routes_id" value="40,86,428" /><param key="position" value="32669.429621 27462.523287" /></busStop><busStop id="busStop_-218948504_0" lane="-218948504_0" friendlyPos="1" endPos="-5.00" startPos="-26.00"><param key="routes_id" value="356" /><param key="position" value="31787.022343 13707.394377" /></busStop><busStop id="busStop_181765006#2_0" lane="181765006#2_0" friendlyPos="1" endPos="-5.00" startPos="-26.00"><param key="routes_id" value="68,382,468" /><param key="position" value="17146.747796 12233.131647" /></busStop><busStop id="busStop_296382846#21_0" lane="296382846#21_0" friendlyPos="1" endPos="-5.00" startPos="-26.00"><param key="routes_id" value="68,382,468" /><param key="position" value="17944.930415 13186.683673" /></busStop><busStop id="busStop_296382846#17_0" lane="296382846#17_0" friendlyPos="1" endPos="-5.00" startPos="-26.00"><param key="routes_id" value="68,382,468" /><param key="position" value="18082.610766 13343.970222" /></busStop><busStop id="busStop_296382846#12_0" lane="296382846#12_0" friendlyPos="1" endPos="-5.00" startPos="-26.00"><param key="routes_id" value="68,382,468" /><param key="position" value="18313.882840 13619.522098" /></busStop><busStop id="busStop_296382846#11_0" lane="296382846#11_0" friendlyPos="1" endPos="-5.00" startPos="-26.00"><param key="routes_id" value="68,382,468" /><param key="position" value="18460.183983 13768.841025" /></busStop><busStop id="busStop_-296382846#12_0" lane="-296382846#12_0" friendlyPos="1" endPos="-5.00" startPos="-26.00"><param key="routes_id" value="68,382,468" /><param key="position" value="18446.550942 13736.733680" /></busStop><busStop id="busStop_452404564#0_0" lane="452404564#0_0" friendlyPos="1" endPos="-5.00" startPos="-26.00"><param key="routes_id" value="170" /><param key="position" value="18474.762021 13721.064665" /></busStop><busStop id="busStop_-40294468#3_0" lane="-40294468#3_0" friendlyPos="1" endPos="-5.00" startPos="-26.00"><param key="routes_id" value="170" /><param key="position" value="18611.470632 13859.123850" /></busStop><busStop id="busStop_296382846#10_0" lane="296382846#10_0" friendlyPos="1" endPos="-5.00" startPos="-26.00"><param key="routes_id" value="68,382,468" /><param key="position" value="18599.845355 13883.054653" /></busStop><busStop id="busStop_-296382846#11_0" lane="-296382846#11_0" friendlyPos="1" endPos="-5.00" startPos="-26.00"><param key="routes_id" value="68,170,382,468" /><param key="position" value="18586.473133 13854.284822" /></busStop><busStop id="busStop_452679925_0" lane="452679925_0" friendlyPos="1" endPos="-5.00" startPos="-26.00"><param key="routes_id" value="68,382,468" /><param key="position" value="18762.592440 13954.630737" /></busStop><busStop id="busStop_-296382846#7_0" lane="-296382846#7_0" friendlyPos="1" endPos="-5.00" startPos="-26.00"><param key="routes_id" value="68,382,468" /><param key="position" value="18792.574939 13950.436980" /></busStop><busStop id="busStop_296382846#6_0" lane="296382846#6_0" friendlyPos="1" endPos="-5.00" startPos="-26.00"><param key="routes_id" value="68,382,468" /><param key="position" value="18913.377820 14061.248594" /></busStop><busStop id="busStop_296382846#7_0" lane="296382846#7_0" friendlyPos="1" endPos="-5.00" startPos="-26.00"><param key="routes_id" value="68,170,382,468" /><param key="position" value="18906.974213 14026.587475" /></busStop><busStop id="busStop_296382846#3_0" lane="296382846#3_0" friendlyPos="1" endPos="-5.00" startPos="-26.00"><param key="routes_id" value="68,382,468" /><param key="position" value="19055.552387 14193.403757" /></busStop><busStop id="busStop_-296382846#5_0" lane="-296382846#5_0" friendlyPos="1" endPos="-5.00" startPos="-26.00"><param key="routes_id" value="68,382,468" /><param key="position" value="19009.808311 14152.229942" /></busStop><busStop id="busStop_296382846#1_0" lane="296382846#1_0" friendlyPos="1" endPos="-5.00" startPos="-26.00"><param key="routes_id" value="68,382,468" /><param key="position" value="19290.802715 14302.258403" /></busStop><busStop id="busStop_-296382846#2_0" lane="-296382846#2_0" friendlyPos="1" endPos="-5.00" startPos="-26.00"><param key="routes_id" value="68,382,468" /><param key="position" value="19271.754145 14277.063983" /></busStop><busStop id="busStop_455461139_0" lane="455461139_0" friendlyPos="1" endPos="-5.00" startPos="-26.00"><param key="routes_id" value="68,382,468" /><param key="position" value="19406.780174 14361.885835" /></busStop><busStop id="busStop_496613337#2_0" lane="496613337#2_0" friendlyPos="1" endPos="-5.00" startPos="-26.00"><param key="routes_id" value="68,382,468" /><param key="position" value="19473.920750 14427.628290" /></busStop><busStop id="busStop_-455461139_0" lane="-455461139_0" friendlyPos="1" endPos="-5.00" startPos="-26.00"><param key="routes_id" value="68,382,468" /><param key="position" value="19427.461970 14357.991836" /></busStop><busStop id="busStop_-496613337#0_0" lane="-496613337#0_0" friendlyPos="1" endPos="-5.00" startPos="-26.00"><param key="routes_id" value="68,382,468" /><param key="position" value="19571.510283 14547.974293" /></busStop><busStop id="busStop_165096617#0_0" lane="165096617#0_0" friendlyPos="1" endPos="-5.00" startPos="-26.00"><param key="routes_id" value="64,68,468" /><param key="position" value="19649.555495 14610.447509" /></busStop><busStop id="busStop_-436529004#1_0" lane="-436529004#1_0" friendlyPos="1" endPos="-5.00" startPos="-26.00"><param key="routes_id" value="64" /><param key="position" value="19834.148415 14583.721097" /></busStop><busStop id="busStop_165090612#1_0" lane="165090612#1_0" friendlyPos="1" endPos="-5.00" startPos="-26.00"><param key="routes_id" value="69" /><param key="position" value="19809.715986 14622.002796" /></busStop><busStop id="busStop_-436529004#0_0" lane="-436529004#0_0" friendlyPos="1" endPos="-5.00" startPos="-26.00"><param key="routes_id" value="68,382,468" /><param key="position" value="19740.757582 14665.686171" /></busStop><busStop id="busStop_-436529004#3_0" lane="-436529004#3_0" friendlyPos="1" endPos="-5.00" startPos="-26.00"><param key="routes_id" value="64,382" /><param key="position" value="19908.135942 14518.671811" /></busStop><busStop id="busStop_-165096630#2_0" lane="-165096630#2_0" friendlyPos="1" endPos="-5.00" startPos="-26.00"><param key="routes_id" value="382" /><param key="position" value="19877.761277 14527.965691" /></busStop><busStop id="busStop_165096630#2_0" lane="165096630#2_0" friendlyPos="1" endPos="-5.00" startPos="-26.00"><param key="routes_id" value="64,68,468" /><param key="position" value="19877.535814 14502.958841" /></busStop><busStop id="busStop_455461145#6_0" lane="455461145#6_0" friendlyPos="1" endPos="-5.00" startPos="-26.00"><param key="routes_id" value="69" /><param key="position" value="19903.338498 14828.746712" /></busStop><busStop id="busStop_588317920_0" lane="588317920_0" friendlyPos="1" endPos="-5.00" startPos="-26.00"><param key="routes_id" value="69" /><param key="position" value="19884.664910 14790.110074" /></busStop><busStop id="busStop_462297325#2_0" lane="462297325#2_0" friendlyPos="1" endPos="-5.00" startPos="-26.00"><param key="routes_id" value="69" /><param key="position" value="20035.348737 14915.312640" /></busStop><busStop id="busStop_-436529004#6_0" lane="-436529004#6_0" friendlyPos="1" endPos="-5.00" startPos="-26.00"><param key="routes_id" value="64,382" /><param key="position" value="20051.290153 14392.388008" /></busStop><busStop id="busStop_436529004#4_0" lane="436529004#4_0" friendlyPos="1" endPos="-5.00" startPos="-26.00"><param key="routes_id" value="64,382" /><param key="position" value="20017.755696 14403.853198" /></busStop><busStop id="busStop_164612935#3_0" lane="164612935#3_0" friendlyPos="1" endPos="-5.00" startPos="-26.00"><param key="routes_id" value="117" /><param key="position" value="20130.864012 15056.748735" /></busStop><busStop id="busStop_462297325#3_0" lane="462297325#3_0" friendlyPos="1" endPos="-5.00" startPos="-26.00"><param key="routes_id" value="69" /><param key="position" value="20114.840735 15047.824355" /></busStop><busStop id="busStop_455461145#1_0" lane="455461145#1_0" friendlyPos="1" endPos="-5.00" startPos="-26.00"><param key="routes_id" value="69" /><param key="position" value="20096.896614 15061.316676" /></busStop><busStop id="busStop_462277755_0" lane="462277755_0" friendlyPos="1" endPos="-5.00" startPos="-26.00"><param key="routes_id" value="180,365" /><param key="position" value="20172.918316 14074.293016" /></busStop><busStop id="busStop_-462277755_0" lane="-462277755_0" friendlyPos="1" endPos="-5.00" startPos="-26.00"><param key="routes_id" value="180,365" /><param key="position" value="20207.678437 14083.962108" /></busStop><busStop id="busStop_-747435037#1_0" lane="-747435037#1_0" friendlyPos="1" endPos="-5.00" startPos="-26.00"><param key="routes_id" value="69,117" /><param key="position" value="20206.845878 15154.645414" /></busStop><busStop id="busStop_747435037#1_0" lane="747435037#1_0" friendlyPos="1" endPos="-5.00" startPos="-26.00"><param key="routes_id" value="69" /><param key="position" value="20179.512577 15144.872858" /></busStop><busStop id="busStop_-680568191#0_0" lane="-680568191#0_0" friendlyPos="1" endPos="-5.00" startPos="-26.00"><param key="routes_id" value="64,382" /><param key="position" value="20292.742358 14181.226972" /></busStop><busStop id="busStop_460518908#7_0" lane="460518908#7_0" friendlyPos="1" endPos="-5.00" startPos="-26.00"><param key="routes_id" value="180,365" /><param key="position" value="20287.512256 14210.258049" /></busStop><busStop id="busStop_680568191#0_0" lane="680568191#0_0" friendlyPos="1" endPos="-5.00" startPos="-26.00"><param key="routes_id" value="64,382" /><param key="position" value="20304.998704 14152.419699" /></busStop><busStop id="busStop_-680568192_0" lane="-680568192_0" friendlyPos="1" endPos="-5.00" startPos="-26.00"><param key="routes_id" value="180,365" /><param key="position" value="20275.666511 14169.618363" /></busStop><busStop id="busStop_24575293#7_0" lane="24575293#7_0" friendlyPos="1" endPos="-5.00" startPos="-26.00"><param key="routes_id" value="69" /><param key="position" value="20328.003247 15289.050379" /></busStop><busStop id="busStop_-24575293#9_0" lane="-24575293#9_0" friendlyPos="1" endPos="-5.00" startPos="-26.00"><param key="routes_id" value="69" /><param key="position" value="20321.368700 15264.496217" /></busStop><busStop id="busStop_680568191#1_0" lane="680568191#1_0" friendlyPos="1" endPos="-5.00" startPos="-26.00"><param key="routes_id" value="64,382" /><param key="position" value="20385.811710 14081.262199" /></busStop><busStop id="busStop_460518908#4_0" lane="460518908#4_0" friendlyPos="1" endPos="-5.00" startPos="-26.00"><param key="routes_id" value="180,365" /><param key="position" value="20424.933820 14373.817687" /></busStop><busStop id="busStop_-460518908#5_0" lane="-460518908#5_0" friendlyPos="1" endPos="-5.00" startPos="-26.00"><param key="routes_id" value="180,365" /><param key="position" value="20420.831563 14342.303210" /></busStop><busStop id="busStop_24575293#6_0" lane="24575293#6_0" friendlyPos="1" endPos="-5.00" startPos="-26.00"><param key="routes_id" value="69" /><param key="position" value="20444.897099 15401.719803" /></busStop><busStop id="busStop_-165090597#1_0" lane="-165090597#1_0" friendlyPos="1" endPos="-5.00" startPos="-26.00"><param key="routes_id" value="69" /><param key="position" value="20450.817768 15388.035295" /></busStop><busStop id="busStop_-794585386#2_0" lane="-794585386#2_0" friendlyPos="1" endPos="-5.00" startPos="-26.00"><param key="routes_id" value="164,170" /><param key="position" value="20461.729361 13891.900368" /></busStop><busStop id="busStop_-680568191#4_0" lane="-680568191#4_0" friendlyPos="1" endPos="-5.00" startPos="-26.00"><param key="routes_id" value="64,382" /><param key="position" value="20538.744101 13965.036129" /></busStop><busStop id="busStop_680568191#3_0" lane="680568191#3_0" friendlyPos="1" endPos="-5.00" startPos="-26.00"><param key="routes_id" value="64,382" /><param key="position" value="20507.579499 13974.647744" /></busStop><busStop id="busStop_-794585386#1_0" lane="-794585386#1_0" friendlyPos="1" endPos="-5.00" startPos="-26.00"><param key="routes_id" value="164,170" /><param key="position" value="20515.001763 13955.097743" /></busStop><busStop id="busStop_794585386#1_0" lane="794585386#1_0" friendlyPos="1" endPos="-5.00" startPos="-26.00"><param key="routes_id" value="164" /><param key="position" value="20490.169644 13944.919690" /></busStop><busStop id="busStop_24575293#3_0" lane="24575293#3_0" friendlyPos="1" endPos="-5.00" startPos="-26.00"><param key="routes_id" value="69" /><param key="position" value="20597.302453 15602.752502" /></busStop><busStop id="busStop_-24575293#4_0" lane="-24575293#4_0" friendlyPos="1" endPos="-5.00" startPos="-26.00"><param key="routes_id" value="69" /><param key="position" value="20592.853542 15578.344291" /></busStop><busStop id="busStop_460518908#1_0" lane="460518908#1_0" friendlyPos="1" endPos="-5.00" startPos="-26.00"><param key="routes_id" value="180,365" /><param key="position" value="20637.999248 14626.720301" /></busStop><busStop id="busStop_-460518908#2_0" lane="-460518908#2_0" friendlyPos="1" endPos="-5.00" startPos="-26.00"><param key="routes_id" value="180,365" /><param key="position" value="20635.046292 14596.668764" /></busStop><busStop id="busStop_-680568191#5_0" lane="-680568191#5_0" friendlyPos="1" endPos="-5.00" startPos="-26.00"><param key="routes_id" value="64,171,382,964" /><param key="position" value="20669.377522 13851.455126" /></busStop><busStop id="busStop_680568191#4_0" lane="680568191#4_0" friendlyPos="1" endPos="-5.00" startPos="-26.00"><param key="routes_id" value="64,170,382" /><param key="position" value="20632.447057 13864.973884" /></busStop><busStop id="busStop_-794585383#11_0" lane="-794585383#11_0" friendlyPos="1" endPos="-5.00" startPos="-26.00"><param key="routes_id" value="164" /><param key="position" value="20697.454465 13844.461605" /></busStop><busStop id="busStop_794585383#11_0" lane="794585383#11_0" friendlyPos="1" endPos="-5.00" startPos="-26.00"><param key="routes_id" value="164" /><param key="position" value="20684.150749 13870.250915" /></busStop><busStop id="busStop_822249012#1_0" lane="822249012#1_0" friendlyPos="1" endPos="-5.00" startPos="-26.00"><param key="routes_id" value="117" /><param key="position" value="20749.728459 14721.087282" /></busStop><busStop id="busStop_460518909#2_0" lane="460518909#2_0" friendlyPos="1" endPos="-5.00" startPos="-26.00"><param key="routes_id" value="180,365" /><param key="position" value="20740.596737 14744.943404" /></busStop><busStop id="busStop_-460518907_0" lane="-460518907_0" friendlyPos="1" endPos="-5.00" startPos="-26.00"><param key="routes_id" value="117" /><param key="position" value="20716.773114 14730.557786" /></busStop><busStop id="busStop_-460518908#0_0" lane="-460518908#0_0" friendlyPos="1" endPos="-5.00" startPos="-26.00"><param key="routes_id" value="180,365" /><param key="position" value="20730.582516 14707.221481" /></busStop><busStop id="busStop_24575293#2_0" lane="24575293#2_0" friendlyPos="1" endPos="-5.00" startPos="-26.00"><param key="routes_id" value="69" /><param key="position" value="20760.656424 15763.404646" /></busStop><busStop id="busStop_-24575293#3_0" lane="-24575293#3_0" friendlyPos="1" endPos="-5.00" startPos="-26.00"><param key="routes_id" value="69" /><param key="position" value="20744.998577 15736.815375" /></busStop><busStop id="busStop_794585383#7_0" lane="794585383#7_0" friendlyPos="1" endPos="-5.00" startPos="-26.00"><param key="routes_id" value="164" /><param key="position" value="20832.714239 13909.426614" /></busStop><busStop id="busStop_-794585383#8_0" lane="-794585383#8_0" friendlyPos="1" endPos="-5.00" startPos="-26.00"><param key="routes_id" value="164" /><param key="position" value="20819.386594 13888.208984" /></busStop><busStop id="busStop_462287959#1_0" lane="462287959#1_0" friendlyPos="1" endPos="-5.00" startPos="-26.00"><param key="routes_id" value="180,365" /><param key="position" value="20893.019141 14921.201999" /></busStop><busStop id="busStop_-460518909#0_0" lane="-460518909#0_0" friendlyPos="1" endPos="-5.00" startPos="-26.00"><param key="routes_id" value="180,365" /><param key="position" value="20884.466375 14884.948001" /></busStop><busStop id="busStop_24575293#1_0" lane="24575293#1_0" friendlyPos="1" endPos="-5.00" startPos="-26.00"><param key="routes_id" value="69" /><param key="position" value="20872.922444 15842.447913" /></busStop><busStop id="busStop_-24575293#1_0" lane="-24575293#1_0" friendlyPos="1" endPos="-5.00" startPos="-26.00"><param key="routes_id" value="69" /><param key="position" value="20894.733827 15840.910748" /></busStop><busStop id="busStop_794585383#6_0" lane="794585383#6_0" friendlyPos="1" endPos="-5.00" startPos="-26.00"><param key="routes_id" value="164" /><param key="position" value="20993.751155 14041.930923" /></busStop><busStop id="busStop_-794585383#7_0" lane="-794585383#7_0" friendlyPos="1" endPos="-5.00" startPos="-26.00"><param key="routes_id" value="164" /><param key="position" value="20989.691039 14017.639884" /></busStop><busStop id="busStop_163592282#3_0" lane="163592282#3_0" friendlyPos="1" endPos="-5.00" startPos="-26.00"><param key="routes_id" value="69" /><param key="position" value="21069.404375 15928.632870" /></busStop><busStop id="busStop_57753769#0_0" lane="57753769#0_0" friendlyPos="1" endPos="-5.00" startPos="-26.00"><param key="routes_id" value="69" /><param key="position" value="21034.878280 15924.518714" /></busStop><busStop id="busStop_794585383#5_0" lane="794585383#5_0" friendlyPos="1" endPos="-5.00" startPos="-26.00"><param key="routes_id" value="164" /><param key="position" value="21128.843937 14198.912353" /></busStop><busStop id="busStop_-794585383#6_0" lane="-794585383#6_0" friendlyPos="1" endPos="-5.00" startPos="-26.00"><param key="routes_id" value="164" /><param key="position" value="21114.732671 14163.457214" /></busStop><busStop id="busStop_822249011#3_0" lane="822249011#3_0" friendlyPos="1" endPos="-5.00" startPos="-26.00"><param key="routes_id" value="117" /><param key="position" value="21239.196137 14296.377249" /></busStop><busStop id="busStop_794585383#3_0" lane="794585383#3_0" friendlyPos="1" endPos="-5.00" startPos="-26.00"><param key="routes_id" value="164" /><param key="position" value="21234.731014 14321.308387" /></busStop><busStop id="busStop_-822249012#0_0" lane="-822249012#0_0" friendlyPos="1" endPos="-5.00" startPos="-26.00"><param key="routes_id" value="117" /><param key="position" value="21210.357619 14302.244719" /></busStop><busStop id="busStop_-794585383#4_0" lane="-794585383#4_0" friendlyPos="1" endPos="-5.00" startPos="-26.00"><param key="routes_id" value="164" /><param key="position" value="21220.054260 14287.066212" /></busStop><busStop id="busStop_477509408_0" lane="477509408_0" friendlyPos="1" endPos="-5.00" startPos="-26.00"><param key="routes_id" value="180,365" /><param key="position" value="21271.781113 15317.933986" /></busStop><busStop id="busStop_37691779_0" lane="37691779_0" friendlyPos="1" endPos="-5.00" startPos="-26.00"><param key="routes_id" value="180,365" /><param key="position" value="21253.379723 15272.740877" /></busStop><busStop id="busStop_163592282#1_0" lane="163592282#1_0" friendlyPos="1" endPos="-5.00" startPos="-26.00"><param key="routes_id" value="69" /><param key="position" value="21381.760859 15778.891316" /></busStop><busStop id="busStop_22884537#0_0" lane="22884537#0_0" friendlyPos="1" endPos="-5.00" startPos="-26.00"><param key="routes_id" value="69" /><param key="position" value="21346.763871 15774.878953" /></busStop><busStop id="busStop_22884537#1_0" lane="22884537#1_0" friendlyPos="1" endPos="-5.00" startPos="-26.00"><param key="routes_id" value="179" /><param key="position" value="21399.413472 15749.729051" /></busStop><busStop id="busStop_794585383#0_0" lane="794585383#0_0" friendlyPos="1" endPos="-5.00" startPos="-26.00"><param key="routes_id" value="164" /><param key="position" value="21377.790136 14487.203570" /></busStop><busStop id="busStop_-794585383#1_0" lane="-794585383#1_0" friendlyPos="1" endPos="-5.00" startPos="-26.00"><param key="routes_id" value="164" /><param key="position" value="21372.084881 14463.330048" /></busStop><busStop id="busStop_-22891470#1_0" lane="-22891470#1_0" friendlyPos="1" endPos="-5.00" startPos="-26.00"><param key="routes_id" value="179" /><param key="position" value="21426.773445 15853.854042" /></busStop><busStop id="busStop_460515610#0_0" lane="460515610#0_0" friendlyPos="1" endPos="-5.00" startPos="-26.00"><param key="routes_id" value="180,365" /><param key="position" value="21443.960812 15492.415702" /></busStop><busStop id="busStop_-460515610#2_0" lane="-460515610#2_0" friendlyPos="1" endPos="-5.00" startPos="-26.00"><param key="routes_id" value="180,365" /><param key="position" value="21427.989260 15451.595373" /></busStop><busStop id="busStop_-37722245#2_0" lane="-37722245#2_0" friendlyPos="1" endPos="-5.00" startPos="-26.00"><param key="routes_id" value="164" /><param key="position" value="21478.340429 14586.514398" /></busStop><busStop id="busStop_37722245#0_0" lane="37722245#0_0" friendlyPos="1" endPos="-5.00" startPos="-26.00"><param key="routes_id" value="164" /><param key="position" value="21514.786662 14646.002921" /></busStop><busStop id="busStop_18835344#9_0" lane="18835344#9_0" friendlyPos="1" endPos="-5.00" startPos="-26.00"><param key="routes_id" value="179" /><param key="position" value="21617.739620 15668.817646" /></busStop><busStop id="busStop_474779727#2_0" lane="474779727#2_0" friendlyPos="1" endPos="-5.00" startPos="-26.00"><param key="routes_id" value="69" /><param key="position" value="21605.634557 15702.514558" /></busStop><busStop id="busStop_22884537#3_0" lane="22884537#3_0" friendlyPos="1" endPos="-5.00" startPos="-26.00"><param key="routes_id" value="179" /><param key="position" value="21574.216238 15665.665588" /></busStop><busStop id="busStop_460515612_0" lane="460515612_0" friendlyPos="1" endPos="-5.00" startPos="-26.00"><param key="routes_id" value="180,365" /><param key="position" value="21569.466563 15645.585615" /></busStop><busStop id="busStop_462302312_0" lane="462302312_0" friendlyPos="1" endPos="-5.00" startPos="-26.00"><param key="routes_id" value="179,365" /><param key="position" value="21674.539344 15614.288860" /></busStop><busStop id="busStop_-474779727#0_0" lane="-474779727#0_0" friendlyPos="1" endPos="-5.00" startPos="-26.00"><param key="routes_id" value="69" /><param key="position" value="21708.784671 15880.550060" /></busStop><busStop id="busStop_474779727#0_0" lane="474779727#0_0" friendlyPos="1" endPos="-5.00" startPos="-26.00"><param key="routes_id" value="69" /><param key="position" value="21677.372239 15853.035262" /></busStop><busStop id="busStop_22884605#12_0" lane="22884605#12_0" friendlyPos="1" endPos="-5.00" startPos="-26.00"><param key="routes_id" value="164" /><param key="position" value="21728.304172 14896.729175" /></busStop><busStop id="busStop_-22884605#13_0" lane="-22884605#13_0" friendlyPos="1" endPos="-5.00" startPos="-26.00"><param key="routes_id" value="164" /><param key="position" value="21718.635929 14862.122643" /></busStop><busStop id="busStop_35868977#1_0" lane="35868977#1_0" friendlyPos="1" endPos="-5.00" startPos="-26.00"><param key="routes_id" value="69" /><param key="position" value="21819.135395 16181.833421" /></busStop><busStop id="busStop_-35868977#2_0" lane="-35868977#2_0" friendlyPos="1" endPos="-5.00" startPos="-26.00"><param key="routes_id" value="69" /><param key="position" value="21816.831021 16136.344968" /></busStop><busStop id="busStop_22884605#10_0" lane="22884605#10_0" friendlyPos="1" endPos="-5.00" startPos="-26.00"><param key="routes_id" value="164" /><param key="position" value="21821.977320 15005.157610" /></busStop><busStop id="busStop_-22884605#11_0" lane="-22884605#11_0" friendlyPos="1" endPos="-5.00" startPos="-26.00"><param key="routes_id" value="164" /><param key="position" value="21817.674003 14976.861352" /></busStop><busStop id="busStop_18835344#7_0" lane="18835344#7_0" friendlyPos="1" endPos="-5.00" startPos="-26.00"><param key="routes_id" value="179,180,365" /><param key="position" value="21902.256870 15527.872377" /></busStop><busStop id="busStop_462302311#0_0" lane="462302311#0_0" friendlyPos="1" endPos="-5.00" startPos="-26.00"><param key="routes_id" value="179,180,365" /><param key="position" value="21859.612853 15518.620722" /></busStop><busStop id="busStop_22884605#9_0" lane="22884605#9_0" friendlyPos="1" endPos="-5.00" startPos="-26.00"><param key="routes_id" value="164" /><param key="position" value="22001.179097 15213.218285" /></busStop><busStop id="busStop_-22884605#10_0" lane="-22884605#10_0" friendlyPos="1" endPos="-5.00" startPos="-26.00"><param key="routes_id" value="164" /><param key="position" value="21997.873640 15186.049410" /></busStop><busStop id="busStop_18835344#2_0" lane="18835344#2_0" friendlyPos="1" endPos="-5.00" startPos="-26.00"><param key="routes_id" value="179,180,365" /><param key="position" value="22164.510655 15359.460842" /></busStop><busStop id="busStop_22884605#5_0" lane="22884605#5_0" friendlyPos="1" endPos="-5.00" startPos="-26.00"><param key="routes_id" value="164" /><param key="position" value="22148.567366 15384.092801" /></busStop><busStop id="busStop_-22884605#9_0" lane="-22884605#9_0" friendlyPos="1" endPos="-5.00" startPos=