<?xml version='1.0' encoding='UTF-8'?>
<additional><chargingStation id="chargingStation_-102232485#13_1_2_0" lane="-102232485#13_1" power="7000.00" efficiency="1.00" friendlyPos="1" startPos="0.00" endPos="5.00"><param key="network" value="Non-Networked" /><param key="connections" value="J1772" /></chargingStation><chargingStation id="chargingStation_-102232485#13_1_2_1" lane="-102232485#13_1" power="7000.00" efficiency="1.00" friendlyPos="1" startPos="5.00" endPos="10.00"><param key="network" value="Non-Networked" /><param key="connections" value="J1772" /></chargingStation><chargingStation id="chargingStation_491602093_0_2_0" lane="491602093_0" power="7000.00" efficiency="1.00" friendlyPos="1" startPos="0.00" endPos="5.00"><param key="network" value="Non-Networked" /><param key="connections" value="J1772" /></chargingStation><chargingStation id="chargingStation_491602093_0_2_1" lane="491602093_0" power="7000.00" efficiency="1.00" friendlyPos="1" startPos="5.00" endPos="10.00"><param key="network" value="Non-Networked" /><param key="connections" value="J1772" /></chargingStation><chargingStation id="chargingStation_491602093_0_2_2" lane="491602093_0" power="7000.00" efficiency="1.00" friendlyPos="1" startPos="10.00" endPos="15.00"><param key="network" value="Non-Networked" /><param key="connections" value="J1772" /></chargingStation><chargingStation id="chargingStation_491602093_0_2_3" lane="491602093_0" power="7000.00" efficiency="1.00" friendlyPos="1" startPos="15.00" endPos="20.00"><param key="network" value="Non-Networked" /><param key="connections" value="J1772" /></chargingStation><chargingStation id="chargingStation_491602093_0_2_4" lane="491602093_0" power="7000.00" efficiency="1.00" friendlyPos="1" startPos="20.00" endPos="25.00"><param key="network" value="Non-Networked" /><param key="connections" value="J1772" /></chargingStation><chargingStation id="chargingStation_491602093_0_2_5" lane="491602093_0" power="7000.00" efficiency="1.00" friendlyPos="1" startPos="25.00" endPos="30.00"><param key="network" value="Non-Networked" /><param key="connections" value="J1772" /></chargingStation><chargingStation id="chargingStation_342320558#1_0_1_0" lane="342320558#1_0" power="1000.00" efficiency="1.00" friendlyPos="1" startPos="0.00" endPos="5.00"><param key="network" value="Non-Networked" /><param key="connections" value="NEMA515" /></chargingStation><chargingStation id="chargingStation_449521204#0_0_2_0" lane="449521204#0_0" power="7000.00" efficiency="1.00" friendlyPos="1" startPos="0.00" endPos="5.00"><param key="network" value="Non-Networked Tesla Destination" /><param key="connections" value="J1772 J1772 TESLA" /></chargingStation><chargingStation id="chargingStation_449521204#0_0_2_1" lane="449521204#0_0" power="7000.00" efficiency="1.00" friendlyPos="1" startPos="5.00" endPos="10.00"><param key="network" value="Non-Networked Tesla Destination" /><param key="connections" value="J1772 J1772 TESLA" /></chargingStation><chargingStation id="chargingStation_449521204#0_0_2_2" lane="449521204#0_0" power="7000.00" efficiency="1.00" friendlyPos="1" startPos="10.00" endPos="15.00"><param key="network" value="Non-Networked Tesla Destination" /><param key="connections" value="J1772 J1772 TESLA" /></chargingStation><chargingStation id="chargingStation_449521204#0_0_2_3" lane="449521204#0_0" power="7000.00" efficiency="1.00" friendlyPos="1" startPos="15.00" endPos="20.00"><param key="network" value="Non-Networked Tesla Destination" /><param key="connections" value="J1772 J1772 TESLA" /></chargingStation><chargingStation id="chargingStation_449521204#0_0_2_4" lane="449521204#0_0" power="7000.00" efficiency="1.00" friendlyPos="1" startPos="20.00" endPos="25.00"><param key="network" value="Non-Networked Tesla Destination" /><param key="connections" value="J1772 J1772 TESLA" /></chargingStation><chargingStation id="chargingStation_-795234160#1_0_2_0" lane="-795234160#1_0" power="7000.00" efficiency="1.00" friendlyPos="1" startPos="0.00" endPos="5.00"><param key="network" value="Non-Networked" /><param key="connections" value="J1772" /></chargingStation><chargingStation id="chargingStation_-795234160#1_0_2_1" lane="-795234160#1_0" power="7000.00" efficiency="1.00" friendlyPos="1" startPos="5.00" endPos="10.00"><param key="network" value="Non-Networked" /><param key="connections" value="J1772" /></chargingStation><chargingStation id="chargingStation_753078049_0_2_0" lane="753078049_0" power="7000.00" efficiency="1.00" friendlyPos="1" startPos="0.00" endPos="5.00"><param key="network" value="Non-Networked" /><param key="connections" value="J1772" /></chargingStation><chargingStation id="chargingStation_753078049_0_2_1" lane="753078049_0" power="7000.00" efficiency="1.00" friendlyPos="1" startPos="5.00" endPos="10.00"><param key="network" value="Non-Networked" /><param key="connections" value="J1772" /></chargingStation><chargingStation id="chargingStation_753078049_0_2_2" lane="753078049_0" power="7000.00" efficiency="1.00" friendlyPos="1" startPos="10.00" endPos="15.00"><param key="network" value="Non-Networked" /><param key="connections" value="J1772" /></chargingStation><chargingStation id="chargingStation_455449062#1_0_2_0" lane="455449062#1_0" power="7000.00" efficiency="1.00" friendlyPos="1" startPos="0.00" endPos="5.00"><param key="network" value="Non-Networked" /><param key="connections" value="J1772" /></chargingStation><chargingStation id="chargingStation_-198566117#2_0_2_0" lane="-198566117#2_0" power="7000.00" efficiency="1.00" friendlyPos="1" startPos="0.00" endPos="5.00"><param key="network" value="Non-Networked" /><param key="connections" value="J1772" /></chargingStation><chargingStation id="chargingStation_22663128#2_0_2_0" lane="22663128#2_0" power="7000.00" efficiency="1.00" friendlyPos="1" startPos="0.00" endPos="5.00"><param key="network" value="Non-Networked" /><param key="connections" value="J1772" /></chargingStation><chargingStation id="chargingStation_-108603837_0_2_0" lane="-108603837_0" power="7000.00" efficiency="1.00" friendlyPos="1" startPos="0.00" endPos="5.00"><param key="network" value="Non-Networked" /><param key="connections" value="J1772" /></chargingStation><chargingStation id="chargingStation_19895490#4_0_2_0" lane="19895490#4_0" power="7000.00" efficiency="1.00" friendlyPos="1" startPos="0.00" endPos="5.00"><param key="network" value="Non-Networked Tesla Destination" /><param key="connections" value="J1772 J1772 TESLA" /></chargingStation><chargingStation id="chargingStation_19895490#4_0_2_1" lane="19895490#4_0" power="7000.00" efficiency="1.00" friendlyPos="1" startPos="5.00" endPos="10.00"><param key="network" value="Non-Networked Tesla Destination" /><param key="connections" value="J1772 J1772 TESLA" /></chargingStation><chargingStation id="chargingStation_19895490#4_0_2_2" lane="19895490#4_0" power="7000.00" efficiency="1.00" friendlyPos="1" startPos="10.00" endPos="15.00"><param key="network" value="Non-Networked Tesla Destination" /><param key="connections" value="J1772 J1772 TESLA" /></chargingStation><chargingStation id="chargingStation_19895490#4_0_2_3" lane="19895490#4_0" power="7000.00" efficiency="1.00" friendlyPos="1" startPos="15.00" endPos="20.00"><param key="network" value="Non-Networked Tesla Destination" /><param key="connections" value="J1772 J1772 TESLA" /></chargingStation><chargingStation id="chargingStation_477892162_0_2_0" lane="477892162_0" power="7000.00" efficiency="1.00" friendlyPos="1" startPos="0.00" endPos="5.00"><param key="network" value="Non-Networked" /><param key="connections" value="J1772" /></chargingStation><chargingStation id="chargingStation_477892162_0_2_1" lane="477892162_0" power="7000.00" efficiency="1.00" friendlyPos="1" startPos="5.00" endPos="10.00"><param key="network" value="Non-Networked" /><param key="connections" value="J1772" /></chargingStation><chargingStation id="chargingStation_101804185#3_1_2_0" lane="101804185#3_1" power="7000.00" efficiency="1.00" friendlyPos="1" startPos="0.00" endPos="5.00"><param key="network" value="Non-Networked" /><param key="connections" value="J1772" /></chargingStation><chargingStation id="chargingStation_101804185#3_1_2_1" lane="101804185#3_1" power="7000.00" efficiency="1.00" friendlyPos="1" startPos="5.00" endPos="10.00"><param key="network" value="Non-Networked" /><param key="connections" value="J1772" /></chargingStation><chargingStation id="chargingStation_101804185#3_1_2_2" lane="101804185#3_1" power="7000.00" efficiency="1.00" friendlyPos="1" startPos="10.00" endPos="15.00"><param key="network" value="Non-Networked" /><param key="connections" value="J1772" /></chargingStation><chargingStation id="chargingStation_637918489#2_0_2_0" lane="637918489#2_0" power="7000.00" efficiency="1.00" friendlyPos="1" startPos="0.00" endPos="5.00"><param key="network" value="Non-Networked FLO" /><param key="connections" value="J1772 J1772" /></chargingStation><chargingStation id="chargingStation_637918489#2_0_2_1" lane="637918489#2_0" power="7000.00" efficiency="1.00" friendlyPos="1" startPos="5.00" endPos="10.00"><param key="network" value="Non-Networked FLO" /><param key="connections" value="J1772 J1772" /></chargingStation><chargingStation id="chargingStation_637918491#1_0_2_0" lane="637918491#1_0" power="7000.00" efficiency="1.00" friendlyPos="1" startPos="0.00" endPos="5.00"><param key="network" value="Non-Networked" /><param key="connections" value="J1772" /></chargingStation><chargingStation id="chargingStation_-27650543#3_0_2_0" lane="-27650543#3_0" power="7000.00" efficiency="1.00" friendlyPos="1" startPos="0.00" endPos="5.00"><param key="network" value="ChargePoint Network ChargePoint Network" /><param key="connections" value="J1772 J1772COMBO" /></chargingStation><chargingStation id="chargingStation_-27650543#3_0_2_1" lane="-27650543#3_0" power="7000.00" efficiency="1.00" friendlyPos="1" startPos="5.00" endPos="10.00"><param key="network" value="ChargePoint Network ChargePoint Network" /><param key="connections" value="J1772 J1772COMBO" /></chargingStation><chargingStation id="chargingStation_-27650543#3_0_3_0" lane="-27650543#3_0" power="50000.00" efficiency="1.00" friendlyPos="1" startPos="10.00" endPos="15.00"><param key="network" value="ChargePoint Network ChargePoint Network" /><param key="connections" value="J1772 J1772COMBO" /></chargingStation><chargingStation id="chargingStation_-453989328#1_1_2_0" lane="-453989328#1_1" power="7000.00" efficiency="1.00" friendlyPos="1" startPos="0.00" endPos="5.00"><param key="network" value="Tesla Destination" /><param key="connections" value="J1772 TESLA" /></chargingStation><chargingStation id="chargingStation_-453989328#1_1_2_1" lane="-453989328#1_1" power="7000.00" efficiency="1.00" friendlyPos="1" startPos="5.00" endPos="10.00"><param key="network" value="Tesla Destination" /><param key="connections" value="J1772 TESLA" /></chargingStation><chargingStation id="chargingStation_-453989328#1_1_2_2" lane="-453989328#1_1" power="7000.00" efficiency="1.00" friendlyPos="1" startPos="10.00" endPos="15.00"><param key="network" value="Tesla Destination" /><param key="connections" value="J1772 TESLA" /></chargingStation><chargingStation id="chargingStation_-453989328#1_1_2_3" lane="-453989328#1_1" power="7000.00" efficiency="1.00" friendlyPos="1" startPos="15.00" endPos="20.00"><param key="network" value="Tesla Destination" /><param key="connections" value="J1772 TESLA" /></chargingStation><chargingStation id="chargingStation_-453989328#1_1_2_4" lane="-453989328#1_1" power="7000.00" efficiency="1.00" friendlyPos="1" startPos="20.00" endPos="25.00"><param key="network" value="Tesla Destination" /><param key="connections" value="J1772 TESLA" /></chargingStation><chargingStation id="chargingStation_-453989328#1_1_2_5" lane="-453989328#1_1" power="7000.00" efficiency="1.00" friendlyPos="1" startPos="25.00" endPos="30.00"><param key="network" value="Tesla Destination" /><param key="connections" value="J1772 TESLA" /></chargingStation><chargingStation id="chargingStation_-453989328#1_1_2_6" lane="-453989328#1_1" power="7000.00" efficiency="1.00" friendlyPos="1" startPos="30.00" endPos="35.00"><param key="network" value="Tesla Destination" /><param key="connections" value="J1772 TESLA" /></chargingStation><chargingStation id="chargingStation_-453989328#1_1_2_7" lane="-453989328#1_1" power="7000.00" efficiency="1.00" friendlyPos="1" startPos="35.00" endPos="40.00"><param key="network" value="Tesla Destination" /><param key="connections" value="J1772 TESLA" /></chargingStation><chargingStation id="chargingStation_-453989328#1_1_2_8" lane="-453989328#1_1" power="7000.00" efficiency="1.00" friendlyPos="1" startPos="40.00" endPos="45.00"><param key="network" value="Tesla Destination" /><param key="connections" value="J1772 TESLA" /></chargingStation><chargingStation id="chargingStation_-453989328#1_1_2_9" lane="-453989328#1_1" power="7000.00" efficiency="1.00" friendlyPos="1" startPos="45.00" endPos="50.00"><param key="network" value="Tesla Destination" /><param key="connections" value="J1772 TESLA" /></chargingStation><chargingStation id="chargingStation_-453989328#1_1_2_10" lane="-453989328#1_1" power="7000.00" efficiency="1.00" friendlyPos="1" startPos="50.00" endPos="55.00"><param key="network" value="Tesla Destination" /><param key="connections" value="J1772 TESLA" /></chargingStation><chargingStation id="chargingStation_-453989328#1_1_2_11" lane="-453989328#1_1" power="7000.00" efficiency="1.00" friendlyPos="1" startPos="55.00" endPos="60.00"><param key="network" value="Tesla Destination" /><param key="connections" value="J1772 TESLA" /></chargingStation><chargingStation id="chargingStation_19892255#0_0_2_0" lane="19892255#0_0" power="7000.00" efficiency="1.00" friendlyPos="1" startPos="0.00" endPos="5.00"><param key="network" value="Tesla Destination" /><param key="connections" value="J1772 TESLA" /></chargingStation><chargingStation id="chargingStation_19892255#0_0_2_1" lane="19892255#0_0" power="7000.00" efficiency="1.00" friendlyPos="1" startPos="5.00" endPos="10.00"><param key="network" value="Tesla Destination" /><param key="connections" value="J1772 TESLA" /></chargingStation><chargingStation id="chargingStation_19892255#0_0_2_2" lane="19892255#0_0" power="7000.00" efficiency="1.00" friendlyPos="1" startPos="10.00" endPos="15.00"><param key="network" value="Tesla Destination" /><param key="connections" value="J1772 TESLA" /></chargingStation><chargingStation id="chargingStation_19892255#0_0_2_3" lane="19892255#0_0" power="7000.00" efficiency="1.00" friendlyPos="1" startPos="15.00" endPos="20.00"><param key="network" value="Tesla Destination" /><param key="connections" value="J1772 TESLA" /></chargingStation><chargingStation id="chargingStation_19892255#0_0_2_4" lane="19892255#0_0" power="7000.00" efficiency="1.00" friendlyPos="1" startPos="20.00" endPos="25.00"><param key="network" value="Tesla Destination" /><param key="connections" value="J1772 TESLA" /></chargingStation><chargingStation id="chargingStation_19892255#0_0_2_5" lane="19892255#0_0" power="7000.00" efficiency="1.00" friendlyPos="1" startPos="25.00" endPos="30.00"><param key="network" value="Tesla Destination" /><param key="connections" value="J1772 TESLA" /></chargingStation><chargingStation id="chargingStation_19892255#0_0_2_6" lane="19892255#0_0" power="7000.00" efficiency="1.00" friendlyPos="1" startPos="30.00" endPos="35.00"><param key="network" value="Tesla Destination" /><param key="connections" value="J1772 TESLA" /></chargingStation><chargingStation id="chargingStation_19892255#0_0_2_7" lane="19892255#0_0" power="7000.00" efficiency="1.00" friendlyPos="1" startPos="35.00" endPos="40.00"><param key="network" value="Tesla Destination" /><param key="connections" value="J1772 TESLA" /></chargingStation><chargingStation id="chargingStation_704196229_0_2_0" lane="704196229_0" power="7000.00" efficiency="1.00" friendlyPos="1" startPos="0.00" endPos="5.00"><param key="network" value="Tesla Destination" /><param key="connections" value="J1772 TESLA" /></chargingStation><chargingStation id="chargingStation_704196229_0_2_1" lane="704196229_0" power="7000.00" efficiency="1.00" friendlyPos="1" startPos="5.00" endPos="10.00"><param key="network" value="Tesla Destination" /><param key="connections" value="J1772 TESLA" /></chargingStation><chargingStation id="chargingStation_704196229_0_2_2" lane="704196229_0" power="7000.00" efficiency="1.00" friendlyPos="1" startPos="10.00" endPos="15.00"><param key="network" value="Tesla Destination" /><param key="connections" value="J1772 TESLA" /></chargingStation><chargingStation id="chargingStation_461254935#1_1_2_0" lane="461254935#1_1" power="7000.00" efficiency="1.00" friendlyPos="1" startPos="0.00" endPos="5.00"><param key="network" value="Tesla Destination" /><param key="connections" value="J1772 TESLA" /></chargingStation><chargingStation id="chargingStation_461254935#1_1_2_1" lane="461254935#1_1" power="7000.00" efficiency="1.00" friendlyPos="1" startPos="5.00" endPos="10.00"><param key="network" value="Tesla Destination" /><param key="connections" value="J1772 TESLA" /></chargingStation><chargingStation id="chargingStation_461254935#1_1_2_2" lane="461254935#1_1" power="7000.00" efficiency="1.00" friendlyPos="1" startPos="10.00" endPos="15.00"><param key="network" value="Tesla Destination" /><param key="connections" value="J1772 TESLA" /></chargingStation><chargingStation id="chargingStation_639547003_0_2_0" lane="639547003_0" power="7000.00" efficiency="1.00" friendlyPos="1" startPos="0.00" endPos="5.00"><param key="network" value="Tesla Destination" /><param key="connections" value="J1772 TESLA" /></chargingStation><chargingStation id="chargingStation_639547003_0_2_1" lane="639547003_0" power="7000.00" efficiency="1.00" friendlyPos="1" startPos="5.00" endPos="10.00"><param key="network" value="Tesla Destination" /><param key="connections" value="J1772 TESLA" /></chargingStation><chargingStation id="chargingStation_639547003_0_2_2" lane="639547003_0" power="7000.00" efficiency="1.00" friendlyPos="1" startPos="10.00" endPos="15.00"><param key="network" value="Tesla Destination" /><param key="connections" value="J1772 TESLA" /></chargingStation><chargingStation id="chargingStation_639547003_0_2_3" lane="639547003_0" power="7000.00" efficiency="1.00" friendlyPos="1" startPos="15.00" endPos="20.00"><param key="network" value="Tesla Destination" /><param key="connections" value="J1772 TESLA" /></chargingStation><chargingStation id="chargingStation_639547003_0_2_4" lane="639547003_0" power="7000.00" efficiency="1.00" friendlyPos="1" startPos="20.00" endPos="25.00"><param key="network" value="Tesla Destination" /><param key="connections" value="J1772 TESLA" /></chargingStation><chargingStation id="chargingStation_639547003_0_2_5" lane="639547003_0" power="7000.00" efficiency="1.00" friendlyPos="1" startPos="25.00" endPos="30.00"><param key="network" value="Tesla Destination" /><param key="connections" value="J1772 TESLA" /></chargingStation><chargingStation id="chargingStation_639547003_0_2_6" lane="639547003_0" power="7000.00" efficiency="1.00" friendlyPos="1" startPos="30.00" endPos="35.00"><param key="network" value="Tesla Destination" /><param key="connections" value="J1772 TESLA" /></chargingStation><chargingStation id="chargingStation_639547003_0_2_7" lane="639547003_0" power="7000.00" efficiency="1.00" friendlyPos="1" startPos="35.00" endPos="40.00"><param key="network" value="Tesla Destination" /><param key="connections" value="J1772 TESLA" /></chargingStation><chargingStation id="chargingStation_639547003_0_2_8" lane="639547003_0" power="7000.00" efficiency="1.00" friendlyPos="1" startPos="40.00" endPos="45.00"><param key="network" value="Tesla Destination" /><param key="connections" value="J1772 TESLA" /></chargingStation><chargingStation id="chargingStation_477764580#3_0_2_0" lane="477764580#3_0" power="7000.00" efficiency="1.00" friendlyPos="1" startPos="0.00" endPos="5.00"><param key="network" value="Tesla Destination" /><param key="connections" value="J1772 TESLA" /></chargingStation><chargingStation id="chargingStation_477764580#3_0_2_1" lane="477764580#3_0" power="7000.00" efficiency="1.00" friendlyPos="1" startPos="5.00" endPos="10.00"><param key="network" value="Tesla Destination" /><param key="connections" value="J1772 TESLA" /></chargingStation><chargingStation id="chargingStation_477764580#3_0_2_2" lane="477764580#3_0" power="7000.00" efficiency="1.00" friendlyPos="1" startPos="10.00" endPos="15.00"><param key="network" value="Tesla Destination" /><param key="connections" value="J1772 TESLA" /></chargingStation><chargingStation id="chargingStation_477764580#3_0_2_3" lane="477764580#3_0" power="7000.00" efficiency="1.00" friendlyPos="1" startPos="15.00" endPos="20.00"><param key="network" value="Tesla Destination" /><param key="connections" value="J1772 TESLA" /></chargingStation><chargingStation id="chargingStation_477764580#3_0_2_4" lane="477764580#3_0" power="7000.00" efficiency="1.00" friendlyPos="1" startPos="20.00" endPos="25.00"><param key="network" value="Tesla Destination" /><param key="connections" value="J1772 TESLA" /></chargingStation><chargingStation id="chargingStation_477764580#3_0_2_5" lane="477764580#3_0" power="7000.00" efficiency="1.00" friendlyPos="1" startPos="25.00" endPos="30.00"><param key="network" value="Tesla Destination" /><param key="connections" value="J1772 TESLA" /></chargingStation><chargingStation id="chargingStation_477764580#3_0_2_6" lane="477764580#3_0" power="7000.00" efficiency="1.00" friendlyPos="1" startPos="30.00" endPos="35.00"><param key="network" value="Tesla Destination" /><param key="connections" value="J1772 TESLA" /></chargingStation><chargingStation id="chargingStation_477764580#3_0_2_7" lane="477764580#3_0" power="7000.00" efficiency="1.00" friendlyPos="1" startPos="35.00" endPos="40.00"><param key="network" value="Tesla Destination" /><param key="connections" value="J1772 TESLA" /></chargingStation><chargingStation id="chargingStation_477764580#3_0_2_8" lane="477764580#3_0" power="7000.00" efficiency="1.00" friendlyPos="1" startPos="40.00" endPos="45.00"><param key="network" value="Tesla Destination" /><param key="connections" value="J1772 TESLA" /></chargingStation><chargingStation id="chargingStation_477764580#3_0_2_9" lane="477764580#3_0" power="7000.00" efficiency="1.00" friendlyPos="1" startPos="45.00" endPos="50.00"><param key="network" value="Tesla Destination" /><param key="connections" value="J1772 TESLA" /></chargingStation><chargingStation id="chargingStation_477764580#3_0_2_10" lane="477764580#3_0" power="7000.00" efficiency="1.00" friendlyPos="1" startPos="50.00" endPos="55.00"><param key="network" value="Tesla Destination" /><param key="connections" value="J1772 TESLA" /></chargingStation><chargingStation id="chargingStation_477764580#3_0_2_11" lane="477764580#3_0" power="7000.00" efficiency="1.00" friendlyPos="1" startPos="55.00" endPos="60.00"><param key="network" value="Tesla Destination" /><param key="connections" value="J1772 TESLA" /></chargingStation><chargingStation id="chargingStation_766379924#0_0_2_0" lane="766379924#0_0" power="7000.00" efficiency="1.00" friendlyPos="1" startPos="0.00" endPos="5.00"><param key="network" value="Tesla Destination" /><param key="connections" value="TESLA" /></chargingStation><chargingStation id="chargingStation_766379924#0_0_2_1" lane="766379924#0_0" power="7000.00" efficiency="1.00" friendlyPos="1" startPos="5.00" endPos="10.00"><param key="network" value="Tesla Destination" /><param key="connections" value="TESLA" /></chargingStation><chargingStation id="chargingStation_766379924#0_0_2_2" lane="766379924#0_0" power="7000.00" efficiency="1.00" friendlyPos="1" startPos="10.00" endPos="15.00"><param key="network" value="Tesla Destination" /><param key="connections" value="TESLA" /></chargingStation><chargingStation id="chargingStation_-465159966_0_2_0" lane="-465159966_0" power="7000.00" efficiency="1.00" friendlyPos="1" startPos="0.00" endPos="5.00"><param key="network" value="Tesla Destination" /><param key="connections" value="J1772 TESLA" /></chargingStation><chargingStation id="chargingStation_-465159966_0_2_1" lane="-465159966_0" power="7000.00" efficiency="1.00" friendlyPos="1" startPos="5.00" endPos="10.00"><param key="network" value="Tesla Destination" /><param key="connections" value="J1772 TESLA" /></chargingStation><chargingStation id="chargingStation_-465159966_0_2_2" lane="-465159966_0" power="7000.00" efficiency="1.00" friendlyPos="1" startPos="10.00" endPos="15.00"><param key="network" value="Tesla Destination" /><param key="connections" value="J1772 TESLA" /></chargingStation><chargingStation id="chargingStation_38802036#0_0_2_0" lane="38802036#0_0" power="7000.00" efficiency="1.00" friendlyPos="1" startPos="0.00" endPos="5.00"><param key="network" value="Tesla Destination" /><param key="connections" value="TESLA" /></chargingStation><chargingStation id="chargingStation_38802036#0_0_2_1" lane="38802036#0_0" power="7000.00" efficiency="1.00" friendlyPos="1" startPos="5.00" endPos="10.00"><param key="network" value="Tesla Destination" /><param key="connections" value="TESLA" /></chargingStation><chargingStation id="chargingStation_551006099#0_0_2_0" lane="551006099#0_0" power="7000.00" efficiency="1.00" friendlyPos="1" startPos="0.00" endPos="5.00"><param key="network" value="Tesla Destination" /><param key="connections" value="J1772 TESLA" /></chargingStation><chargingStation id="chargingStation_551006099#0_0_2_1" lane="551006099#0_0" power="7000.00" efficiency="1.00" friendlyPos="1" startPos="5.00" endPos="10.00"><param key="network" value="Tesla Destination" /><param key="connections" value="J1772 TESLA" /></chargingStation><chargingStation id="chargingStation_551006099#0_0_2_2" lane="551006099#0_0" power="7000.00" efficiency="1.00" friendlyPos="1" startPos="10.00" endPos="15.00"><param key="network" value="Tesla Destination" /><param key="connections" value="J1772 TESLA" /></chargingStation><chargingStation id="chargingStation_551006099#0_0_2_3" lane="551006099#0_0" power="7000.00" efficiency="1.00" friendlyPos="1" startPos="15.00" endPos="20.00"><param key="network" value="Tesla Destination" /><param key="connections" value="J1772 TESLA" /></chargingStation><chargingStation id="chargingStation_551006099#0_0_2_4" lane="551006099#0_0" power="7000.00" efficiency="1.00" friendlyPos="1" startPos="20.00" endPos="25.00"><param key="network" value="Tesla Destination" /><param key="connections" value="J1772 TESLA" /></chargingStation><chargingStation id="chargingStation_551006099#0_0_2_5" lane="551006099#0_0" power="7000.00" efficiency="1.00" friendlyPos="1" startPos="25.00" endPos="30.00"><param key="network" value="Tesla Destination" /><param key="connections" value="J1772 TESLA" /></chargingStation><chargingStation id="chargingStation_551006099#0_0_2_6" lane="551006099#0_0" power="7000.00" efficiency="1.00" friendlyPos="1" startPos="30.00" endPos="35.00"><param key="network" value="Tesla Destination" /><param key="connections" value="J1772 TESLA" /></chargingStation><chargingStation id="chargingStation_551006099#0_0_2_7" lane="551006099#0_0" power="7000.00" efficiency="1.00" friendlyPos="1" startPos="35.00" endPos="40.00"><param key="network" value="Tesla Destination" /><param key="connections" value="J1772 TESLA" /></chargingStation><chargingStation id="chargingStation_551006099#0_0_2_8" lane="551006099#0_0" power="7000.00" efficiency="1.00" friendlyPos="1" startPos="40.00" endPos="45.00"><param key="network" value="Tesla Destination" /><param key="connections" value="J1772 TESLA" /></chargingStation><chargingStation id="chargingStation_551006099#0_0_2_9" lane="551006099#0_0" power="7000.00" efficiency="1.00" friendlyPos="1" startPos="45.00" endPos="50.00"><param key="network" value="Tesla Destination" /><param key="connections" value="J1772 TESLA" /></chargingStation><chargingStation id="chargingStation_551006099#0_0_2_10" lane="551006099#0_0" power="7000.00" efficiency="1.00" friendlyPos="1" startPos="50.00" endPos="55.00"><param key="network" value="Tesla Destination" /><param key="connections" value="J1772 TESLA" /></chargingStation><chargingStation id="chargingStation_551006099#0_0_2_11" lane="551006099#0_0" power="7000.00" efficiency="1.00" friendlyPos="1" startPos="55.00" endPos="60.00"><param key="network" value="Tesla Destination" /><param key="connections" value="J1772 TESLA" /></chargingStation><chargingStation id="chargingStation_551006099#0_0_2_12" lane="551006099#0_0" power="7000.00" efficiency="1.00" friendlyPos="1" startPos="60.00" endPos="65.00"><param key="network" value="Tesla Destination" /><param key="connections" value="J1772 TESLA" /></chargingStation><chargingStation id="chargingStation_551006099#0_0_2_13" lane="551006099#0_0" power="7000.00" efficiency="1.00" friendlyPos="1" startPos="65.00" endPos="70.00"><param key="network" value="Tesla Destination" /><param key="connections" value="J1772 TESLA" /></chargingStation><chargingStation id="chargingStation_551006099#0_0_2_14" lane="551006099#0_0" power="7000.00" efficiency="1.00" friendlyPos="1" startPos="70.00" endPos="75.00"><param key="network" value="Tesla Destination" /><param key="connections" value="J1772 TESLA" /></chargingStation><chargingStation id="chargingStation_551006099#0_0_2_15" lane="551006099#0_0" power="7000.00" efficiency="1.00" friendlyPos="1" startPos="75.00" endPos="80.00"><param key="network" value="Tesla Destination" /><param key="connections" value="J1772 TESLA" /></chargingStation><chargingStation id="chargingStation_551006099#0_0_2_16" lane="551006099#0_0" power="7000.00" efficiency="1.00" friendlyPos="1" startPos="80.00" endPos="85.00"><param key="network" value="Tesla Destination" /><param key="connections" value="J1772 TESLA" /></chargingStation><chargingStation id="chargingStation_551006099#0_0_2_17" lane="551006099#0_0" 