<additional><taz id="taz_0" shape="35415.99983238161,22708.250422669575 35400.57641499117,22661.40789362695 35384.93585430249,22667.94198629167 35350.136163649266,22681.744354726747 35343.73571647215,22684.278121068142 35267.916969930404,22714.342935401946 35235.62650258071,22727.152736885473 35195.698949139914,22742.97866725363 35105.97073648835,22778.539840193465 35070.58683350915,22792.564786750823 35099.22208706883,22865.542846248485 35129.79021189478,22939.297918011434 35161.63418088737,23021.589750768617 35196.90034703154,23110.346267798916 35221.19699778326,23182.898858365603 35247.35048802581,23258.814465590753 35269.59656285704,23330.70221191272 35295.28064241016,23410.31524195429 35314.52182634827,23471.133345857263 35335.282863475964,23531.04605582822 35351.78425470984,23584.15942608565 35370.56873106037,23639.790361139923 35394.855428039446,23714.173344410956 35420.99396979832,23798.160994193517 35439.817431837204,23860.635375483893 35602.21847636532,23824.168435472995 35608.17466853827,23822.677781767212 35755.52047392214,23789.37429902982 35772.03984759678,23785.474267285317 35720.2215198027,23638.894481468946 35683.9997878531,23531.25054383371 35679.757739966735,23518.065862292424 35561.26268946321,23149.816140123643 35554.00037472765,23127.2486694213 35477.05100523168,22899.240676432848 35415.99983238161,22708.250422669575" color="blue" /><taz id="taz_1" shape="35099.22208706883,22865.542846248485 35070.58683350915,22792.564786750823 35034.49261896324,22807.031632033177 34944.17166593764,22843.217742520384 34908.46764341823,22857.532581407577 34872.71476860612,22871.67100128252 34816.3711962353,22893.943657900207 34782.49935280939,22907.34230941627 34746.66297494923,22921.506550771184 34710.417490778025,22936.16663022712 34621.525481220335,22972.11375175882 34585.935707310215,22986.504547444172 34549.42196585762,23001.124660246074 34460.31619453593,23036.817702047527 34425.62871115608,23050.584641627967 34453.75023352215,23123.60360179562 34482.68882037676,23197.632432924584 34513.747281363,23277.79106053617 34537.03721570899,23334.35092620831 34559.84773956821,23394.657298799604 34579.254408838344,23449.598521550186 34587.021997326636,23473.203807719983 34613.75819538161,23550.17741449084 34637.24611350102,23613.522132900544 34662.8463098784,23684.605564632453 34681.79289279459,23736.890736698173 34698.048688352574,23782.143859303556 34701.93296472228,23792.95034569502 34705.18533503753,23802.032783482224 34728.50179350271,23866.09760041721 34756.816564932466,23944.867732563987 34779.744887717534,24008.01494654827 34942.273723262246,23967.383663075976 35105.60137870803,23930.252020843327 35274.18514873972,23897.302956636064 35439.817431837204,23860.635375483893 35420.99396979832,23798.160994193517 35394.855428039446,23714.173344410956 35370.56873106037,23639.790361139923 35351.78425470984,23584.15942608565 35335.282863475964,23531.04605582822 35314.52182634827,23471.133345857263 35295.28064241016,23410.31524195429 35269.59656285704,23330.70221191272 35247.35048802581,23258.814465590753 35221.19699778326,23182.898858365603 35196.90034703154,23110.346267798916 35161.63418088737,23021.589750768617 35129.79021189478,22939.297918011434 35099.22208706883,22865.542846248485" color="blue" /><taz id="taz_2" shape="35294.977562101674,22344.7128840629 35268.00927014649,22258.78116613347 35251.085783034796,22264.42573749181 35209.950237798155,22281.1614311086 35111.5501067735,22321.21693381667 35079.521962067694,22334.254758854397 35039.49673990661,22350.221315287985 34951.79417388851,22385.25331348274 34914.27828111104,22399.74234087486 34877.91819105309,22415.08287547622 34838.54698060639,22431.154365470633 34788.3017954824,22451.666270708665 34754.09484785632,22465.624964443035 34716.42985507799,22480.853088488802 34627.494948299485,22516.817825818434 34592.1635267369,22531.104957432486 34555.349388339324,22545.565696362406 34465.7533350843,22580.75748194568 34429.361198062776,22595.05449816771 34393.56972788973,22609.664329419844 34303.54382044985,22646.39704563748 34269.8221913944,22659.788352224976 34302.29240595782,22742.317899881862 34337.008022154914,22828.538245053962 34367.042455348885,22906.0751277823 34396.65877222107,22977.80360354297 34425.62871115608,23050.584641627967 34460.31619453593,23036.817702047527 34549.42196585762,23001.124660246074 34585.935707310215,22986.504547444172 34621.525481220335,22972.11375175882 34710.417490778025,22936.16663022712 34746.66297494923,22921.506550771184 34782.49935280939,22907.34230941627 34816.3711962353,22893.943657900207 34872.71476860612,22871.67100128252 34908.46764341823,22857.532581407577 34944.17166593764,22843.217742520384 35034.49261896324,22807.031632033177 35070.58683350915,22792.564786750823 35105.97073648835,22778.539840193465 35195.698949139914,22742.97866725363 35235.62650258071,22727.152736885473 35267.916969930404,22714.342935401946 35343.73571647215,22684.278121068142 35350.136163649266,22681.744354726747 35384.93585430249,22667.94198629167 35400.57641499117,22661.40789362695 35375.134157801396,22588.201289967634 35352.54112350673,22515.515143211 35294.977562101674,22344.7128840629" color="blue" /><taz id="taz_3" shape="30578.592787798843,13346.901980218478 30543.453229369712,13292.608231786638 30503.718634031713,13316.809754624031 30392.127138733864,13384.780086138286 30358.362144582206,13404.647039340809 30174.08674724726,13517.898377805017 30208.690829839557,13573.859477911144 30224.922947908868,13599.94011577405 30239.417676041252,13623.254194953479 30244.614306223113,13631.529046537355 30272.06730840425,13677.04625817854 30280.014527550433,13690.695422967896 30304.31260361697,13727.939729578793 30316.41414109827,13749.378251957707 30335.170661473996,13778.726369804703 30366.485212998115,13831.311181602068 30398.574466818478,13885.419294089079 30413.977212451166,13910.833179985173 30436.834425602923,13951.629941261373 30467.76827424986,13932.355801516213 30622.126406455878,13836.161051640287 30811.091419003787,13719.122998002917 30786.466394199873,13680.267010365613 30769.714995165356,13653.84241830092 30738.863993834355,13602.768228431232 30723.050179013982,13576.75602979865 30704.777551556122,13546.699284718372 30687.859461795073,13519.164618017152 30673.542099086568,13495.860136640258 30640.695459221257,13445.930955144577 30609.441905764863,13395.342307567596 30578.592787798843,13346.901980218478" color="blue" /><taz id="taz_4" shape="30644.97394460393,13873.532125697471 30622.126406455878,13836.161051640287 30467.76827424986,13932.355801516213 30436.834425602923,13951.629941261373 30459.616444831947,13988.817948561162 30475.261426319717,14014.357679212466 30505.910162005806,14065.43059529271 30523.541563727078,14095.756032933481 30543.997497986653,14130.138938085176 30549.190726177534,14137.883459934965 30555.88422368164,14148.877772850916 30573.61357501708,14177.698670137674 30607.514382423833,14231.33287037909 30648.813627788215,14295.606020601466 30673.79604752781,14334.075340660289 30718.94699557242,14405.918312216178 30757.092188203824,14382.508762646466 30867.535701303743,14314.729969452135 30904.118764879182,14292.271989368834 30858.44701260759,14219.023052170873 30833.55528322677,14181.051663802937 30814.11974298593,14148.237909317017 30793.68239433982,14115.30705123581 30793.671687058406,14105.311661767773 30776.289752971148,14077.48404973466 30745.900613585953,14028.914964105003 30719.782890413655,13987.396333663724 30697.916103261407,13953.01262895763 30692.69116683898,13948.91243659053 30675.925546312705,13922.87975917384 30660.424112662906,13898.810167809017 30644.97394460393,13873.532125697471" color="blue" /><taz id="taz_5" shape="30834.002178832656,13754.71550681442 30811.091419003787,13719.122998002917 30622.126406455878,13836.161051640287 30644.97394460393,13873.532125697471 30660.424112662906,13898.810167809017 30675.925546312705,13922.87975917384 30692.69116683898,13948.91243659053 30697.916103261407,13953.01262895763 30719.782890413655,13987.396333663724 30745.900613585953,14028.914964105003 30776.289752971148,14077.48404973466 30793.671687058406,14105.311661767773 30793.68239433982,14115.30705123581 30814.11974298593,14148.237909317017 30833.55528322677,14181.051663802937 30858.44701260759,14219.023052170873 30904.118764879182,14292.271989368834 30940.94526057772,14269.638582454994 31059.86637861724,14196.754754559137 31083.198283696314,14182.449608325027 31103.12968572823,14152.154206041247 31077.172668890213,14140.592089824378 31049.473485094495,14099.70351828076 31026.182361380197,14062.706007990055 31005.58030131983,14029.47636223957 30985.262065952527,13996.702636841685 30963.725798851578,13962.913837815635 30931.60407562973,13911.375726910308 30906.250878214138,13870.90161475353 30880.608218048234,13830.42587086279 30865.361964836367,13805.83327596169 30849.542327344418,13780.339307073504 30834.002178832656,13754.71550681442" color="blue" /><taz id="taz_6" shape="31016.520749209332,13641.718670965172 30993.515743139083,13603.358048929833 30811.091419003787,13719.122998002917 30834.002178832656,13754.71550681442 30849.542327344418,13780.339307073504 30865.361964836367,13805.83327596169 30880.608218048234,13830.42587086279 30906.250878214138,13870.90161475353 30931.60407562973,13911.375726910308 30963.725798851578,13962.913837815635 30985.262065952527,13996.702636841685 31005.58030131983,14029.47636223957 31026.182361380197,14062.706007990055 31049.473485094495,14099.70351828076 31077.172668890213,14140.592089824378 31103.12968572823,14152.154206041247 31128.980644188938,14137.940732925199 31129.153583619394,14133.223669819534 31129.665769012412,14128.529583130963 31132.333257244085,14122.833495057188 31143.57268578827,14113.289035805501 31263.274936932256,14039.44356151577 31255.835304734414,14027.58993617259 31230.81802422623,13986.26362360362 31207.034955625073,13947.530702771619 31187.40137261839,13916.103784787469 31166.24925496755,13882.258600835688 31145.52926522796,13850.302951522171 31113.001025650185,13799.260202704929 31088.506529032835,13758.070024398156 31062.242043368286,13716.814646891318 31046.94061321125,13691.87542095501 31031.619537926745,13666.886169640347 31016.520749209332,13641.718670965172" color="blue" /><taz id="taz_7" shape="31689.585936353076,13295.057599403895 31657.91371091397,13189.421010195278 31617.118666726863,13215.053884268738 31561.276885083877,13250.125041522086 31550.94567395246,13256.933402107097 31509.163869018084,13282.652148261666 31484.470853901934,13298.683060855605 31448.82820691704,13321.450957958587 31431.036294060177,13332.577091624029 31317.115070691332,13403.448273320682 31252.384205027134,13441.856229390949 30993.515743139083,13603.358048929833 31016.520749209332,13641.718670965172 31031.619537926745,13666.886169640347 31046.94061321125,13691.87542095501 31062.242043368286,13716.814646891318 31088.506529032835,13758.070024398156 31113.001025650185,13799.260202704929 31282.566990661202,13694.427706185728 31375.335635155672,13637.159618422389 31410.04976316495,13614.812050186098 31525.299458946683,13542.96523270756 31570.633091707714,13514.809719190933 31613.25994289841,13488.681792386808 31682.95882120321,13445.70688191522 31725.51026882103,13417.354101393372 31699.988905608538,13330.2075057365 31695.95358782774,13316.568829717115 31692.961282335455,13306.458118867129 31689.585936353076,13295.057599403895" color="blue" /><taz id="taz_8" shape="31753.887233299785,13517.23097611498 31725.51026882103,13417.354101393372 31682.95882120321,13445.70688191522 31613.25994289841,13488.681792386808 31570.633091707714,13514.809719190933 31525.299458946683,13542.96523270756 31410.04976316495,13614.812050186098 31375.335635155672,13637.159618422389 31282.566990661202,13694.427706185728 31113.001025650185,13799.260202704929 31145.52926522796,13850.302951522171 31166.24925496755,13882.258600835688 31187.40137261839,13916.103784787469 31207.034955625073,13947.530702771619 31230.81802422623,13986.26362360362 31255.835304734414,14027.58993617259 31263.274936932256,14039.44356151577 31373.054507207824,13969.95970878005 31537.23001223267,13868.723950003274 31707.497191213188,13762.151983364485 31718.972509621643,13752.965436726809 31726.147893909598,13747.415281776339 31766.8579022981,13705.984497228637 31797.51693726715,13687.050145306624 31795.844543860527,13653.514408586547 31786.32938570436,13621.838563972153 31759.082556813606,13533.828130067326 31753.887233299785,13517.23097611498" color="blue" /><taz id="taz_9" shape="35012.999703252455,21484.25050156284 34982.230483951746,21394.428545447066 34970.62184657436,21361.378258320503 34965.91509334312,21348.265061790124 34958.25764825009,21326.13596112281 34931.72434415831,21247.820017188787 34927.415197372786,21245.85478582885 34917.00564201339,21240.89812310692 34908.35312692623,21236.52727817837 34902.18950872531,21232.674086594023 34899.23073690233,21234.015748255886 34897.11549678701,21234.975001639687 34886.63167325826,21240.379575636238 34877.37824240839,21245.385239476338 34867.61840951734,21250.598216781393 34855.49943087273,21257.451371383853 34844.06374487281,21264.588644404896 34830.843263655086,21273.63655430451 34821.50957893883,21281.170711456798 34820.16518659121,21282.255487365648 34816.310761146364,21285.638546090573 34814.13361826248,21293.193245633505 34803.46517244063,21318.018720354885 34792.57504406315,21338.813082995825 34773.24458636227,21366.295554219745 34751.65066601662,21391.21452518087 34748.819278283976,21394.483905945905 34721.40577316377,21421.03664929699 34673.04293751961,21458.43417000957 34657.28930288751,21469.79251145944 34647.45949378994,21477.21269010473 34625.97538534447,21490.927916148677 34604.52614276798,21503.33357482031 34556.60684093926,21531.050232230686 34552.82962571236,21533.234679740854 34544.31031754741,21537.695304559544 34534.24856154225,21542.176704426296 34521.94543462084,21548.175098275766 34510.409644792555,21553.28345525358 34498.0283622432,21558.450500505045 34486.15947471268,21563.294641419314 34457.11534495582,21573.589492597617 34424.15204563504,21583.75066391658 34397.466046178015,21590.860310190357 34386.05206235801,21594.065379983746 34375.50620906253,21596.72350868862 34366.653390675085,21599.018317680806 34312.74448575382,21612.363609455526 34281.85925586708,21619.80545719806 34100.15685596294,21665.14838169422 34077.44207411073,21670.817052656785 34027.131691220566,21683.802762434818 33993.813321965514,21692.037201665342 33981.7837309679,21694.99175090622 33941.47785543674,21704.89364593476 33894.38098000758,21716.919812252745 33901.07196085004,21733.585496021435 33913.378377154586,21764.243699419312 33929.84526159847,21806.644674544223 33934.929924723576,21819.320591292344 33960.94408105465,21888.03439576924 33983.70308689133,21944.93039074354 34035.27540116059,22073.888182292692 34060.393286327366,22137.186613492668 34065.68794715125,22150.526147441007 34142.30192357337,22343.53847488854 34171.263631422655,22417.359643477015 34203.50258681085,22497.08070945833 34235.90808024921,22576.84361575637 34269.8221913944,22659.788352224976 34303.54382044985,22646.39704563748 34393.56972788973,22609.664329419844 34429.361198062776,22595.05449816771 34465.7533350843,22580.75748194568 34555.349388339324,22545.565696362406 34592.1635267369,22531.104957432486 34627.494948299485,22516.817825818434 34716.42985507799,22480.853088488802 34754.09484785632,22465.624964443035 34788.3017954824,22451.666270708665 34838.54698060639,22431.154365470633 34877.91819105309,22415.08287547622 34914.27828111104,22399.74234087486 34951.79417388851,22385.25331348274 35039.49673990661,22350.221315287985 35079.521962067694,22334.254758854397 35111.5501067735,22321.21693381667 35209.950237798155,22281.1614311086 35251.085783034796,22264.42573749181 35268.00927014649,22258.78116613347 35241.4597084414,22178.14109795168 35169.30929689261,21959.00696156174 35091.818612298695,21723.64475738816 35067.47302233521,21646.533094130456 35012.999703252455,21484.25050156284" color="blue" /><taz id="taz_10" shape="34899.23073690233,21234.015748255886 34902.18950872531,21232.674086594023 34908.35312692623,21236.52727817837 34917.00564201339,21240.89812310692 34927.415197372786,21245.85478582885 34931.72434415831,21247.820017188787 34924.40734239435,21222.941524576396 34868.29663628852,21044.762994596735 34752.89361575921,20681.50617298577 34719.99893483531,20568.25033234898 34682.23046296043,20400.41548400931 34658.394727665465,20304.557823097333 34634.29729515384,20204.20752584748 34583.632093495224,20029.42297920212 34531.54556946503,19887.627690575086 34477.481649151305,19736.23619783297 34358.839965970954,19415.244896030053 34341.84264847904,19371.245859987102 34333.635170340305,19348.76272589434 34309.04394800076,19279.85316192545 34204.68887542025,18987.429723823443 34181.58286875428,18925.64890392404 34178.91426703206,18917.92577497475 34055.001378143905,18564.24977308698 34041.0006255022,18524.248362905346 34027.000003859284,18477.248909610324 34009.00089642522,18423.250910125673 33982.000152366934,18341.248548573814 33977.99872588925,18330.249360465445 33972.9996952255,18332.24884420354 33874.00127217849,18390.250139643438 33789.12301950727,18435.31620877888 33761.00146206969,18450.24990619067 33640.76196176058,18503.244677349925 33655.2879839167,18545.685572081245 33654.31482081057,18562.900895323604 33723.15650404699,18759.775369219482 33726.61129250168,18770.38276260812 33845.62612516538,19115.200473373756 33861.35936633556,19150.792207022198 33876.18981430377,19185.126652312465 33890.37513310311,19219.388465715572 33905.74402732542,19253.15635343548 33921.27357616159,19287.694758832455 33936.56331749493,19321.735843642615 33952.69752589078,19356.253090758808 33986.0908286731,19427.66367371846 34016.26291408553,19493.227364084683 34045.844616371905,19558.937077083625 34060.11873417243,19594.79597759433 34153.53543693735,19829.48485953547 34153.85890873964,19830.29499243386 34215.55133382953,19985.301374560222 34267.35797373799,20115.441393262707 34293.214613522636,20179.91997008398 34294.63090939028,20184.06722806394 34296.61229327787,20190.193336853758 34298.264226159314,20195.297727478668 34301.587407082785,20205.787421026267 34317.009098526905,20264.455066123046 34340.32551027089,20340.727907623164 34355.707955423626,20384.61202236917 34383.88820613932,20450.139681580476 34414.584806335624,20519.71492464468 34445.268986914656,20590.289889765903 34489.59060513298,20655.74190571159 34512.1409196445,20667.997785629705 34565.28437079617,20712.42236460559 34599.863742512185,20745.38963265065 34629.14595845027,20777.10619571805 34649.9877203278,20805.62890817132 34669.3571454552,20836.53662469238 34690.53572657192,20877.13820719812 34709.48541803507,20930.35342020262 34722.75021850632,20983.777764546685 34726.95673173899,21023.859168864787 34726.02304411889,21122.782649944536 34720.694025367266,21268.325385254808 34725.06679597264,21312.544281699695 34729.67163063947,21326.176409045234 34733.74815232516,21338.237130972557 34739.58832434518,21355.52058294136 34751.65066601662,21391.21452518087 34773.24458636227,21366.295554219745 34792.57504406315,21338.813082995825 34803.46517244063,21318.018720354885 34814.13361826248,21293.193245633505 34816.310761146364,21285.638546090573 34820.16518659121,21282.255487365648 34821.50957893883,21281.170711456798 34830.843263655086,21273.63655430451 34844.06374487281,21264.588644404896 34855.49943087273,21257.451371383853 34867.61840951734,21250.598216781393 34877.37824240839,21245.385239476338 34886.63167325826,21240.379575636238 34897.11549678701,21234.975001639687 34899.23073690233,21234.015748255886" color="blue" /><taz id="taz_11" shape="34424.15204563504,21583.75066391658 34457.11534495582,21573.589492597617 34486.15947471268,21563.294641419314 34498.0283622432,21558.450500505045 34510.409644792555,21553.28345525358 34521.94543462084,21548.175098275766 34534.24856154225,21542.176704426296 34544.31031754741,21537.695304559544 34552.82962571236,21533.234679740854 34556.60684093926,21531.050232230686 34604.52614276798,21503.33357482031 34625.97538534447,21490.927916148677 34647.45949378994,21477.21269010473 34657.28930288751,21469.79251145944 34673.04293751961,21458.43417000957 34721.40577316377,21421.03664929699 34748.819278283976,21394.483905945905 34751.65066601662,21391.21452518087 34739.58832434518,21355.52058294136 34733.74815232516,21338.237130972557 34729.67163063947,21326.176409045234 34725.06679597264,21312.544281699695 34720.694025367266,21268.325385254808 34726.02304411889,21122.782649944536 34726.95673173899,21023.859168864787 34722.75021850632,20983.777764546685 34709.48541803507,20930.35342020262 34690.53572657192,20877.13820719812 34669.3571454552,20836.53662469238 34649.9877203278,20805.62890817132 34629.14595845027,20777.10619571805 34599.863742512185,20745.38963265065 34565.28437079617,20712.42236460559 34512.1409196445,20667.997785629705 34489.59060513298,20655.74190571159 34445.268986914656,20590.289889765903 34414.584806335624,20519.71492464468 34383.88820613932,20450.139681580476 34355.707955423626,20384.61202236917 34340.32551027089,20340.727907623164 34317.009098526905,20264.455066123046 34301.587407082785,20205.787421026267 34298.264226159314,20195.297727478668 34097.32703850488,20284.66062896978 34057.81613996043,20302.915968866087 34018.28028833063,20321.049615093507 33788.35227763571,20424.0774671752 33749.720368227805,20442.0481650047 33711.151612664224,20459.212661921978 33625.70175714069,20497.862577425316 33615.731823488255,20501.988015132025 33606.42025107576,20506.13868786022 33560.40812944691,20523.96608892549 33481.31599313987,20528.311099076644 33442.30404500908,20538.014928434975 33433.007838963065,20540.37365007121 33500.41309458052,20715.043356381357 33518.82454481535,20760.07357292995 33544.50242702535,20824.209354187362 33572.26766561554,20895.89988460671 33601.009986609104,20966.750721253455 33627.9358667396,21038.86965529807 33656.606445995276,21109.597670673393 33693.20392675302,21203.16902123578 33700.27175825043,21220.057202627882 33744.41798629018,21333.953773890622 33786.56318704283,21443.245950100012 33807.60442995443,21494.26270175539 33863.032987057464,21638.83041126374 33881.608610537834,21685.10530429799 33888.98638687609,21703.48258499708 33894.38098000758,21716.919812252745 33941.47785543674,21704.89364593476 33981.7837309679,21694.99175090622 33993.813321965514,21692.037201665342 34027.131691220566,21683.802762434818 34077.44207411073,21670.817052656785 34100.15685596294,21665.14838169422 34281.85925586708,21619.80545719806 34312.74448575382,21612.363609455526 34366.653390675085,21599.018317680806 34375.50620906253,21596.72350868862 34386.05206235801,21594.065379983746 34397.466046178015,21590.860310190357 34424.15204563504,21583.75066391658" color="blue" /><taz id="taz_12" shape="33723.15650404699,18759.775369219482 33654.31482081057,18562.900895323604 33655.2879839167,18545.685572081245 33640.76196176058,18503.244677349925 33631.114007969736,18507.34815064259 33307.0015765928,18656.250465476885 33240.51484007924,18691.798343086615 33205.99991655152,18710.24965773616 33142.884982445394,18738.307367422618 33115.00162399991,18750.250700087287 33079.000426287996,18761.250402538106 33063.99947897275,18761.250118558295 33063.484612185974,18761.088800299913 33010.66978615534,18747.81012883596 32714.40318818565,18877.42819651775 32745.43536466884,18947.03449063748 32790.51873016835,19046.485631594434 32832.836550976266,19139.71873111278 32841.02987637243,19157.774806652218 32845.23377980443,19168.420498237945 32898.051931953756,19284.183437736705 32906.28790698992,19302.467335851863 32986.94161201455,19481.555632941425 32992.03266126511,19491.839215876535 32996.226339844405,19502.152004946955 33000.496896364144,19511.00064531993 33026.885871912935,19569.351444194093 33057.23879838572,19637.5326028876 33087.3711126087,19705.158708279952 33135.5368281994,19810.69753264077 33165.007296491414,19876.278647025116 33195.583047573455,19943.341746186838 33229.664628294995,19927.6241647508 33380.64083740162,19860.168588299304 33416.78226271446,19844.021030671895 33450.488927509636,19828.479855692945 33538.58803904278,19787.865350523032 33574.1439356819,19771.470614648424 33609.29139972059,19755.679531810805 33753.196429013275,19691.027816239744 33787.84872932569,19675.464004377834 33824.68302368687,19658.940056726336 34011.863312340225,19574.99327443447 34045.844616371905,19558.937077083625 34016.26291408553,19493.227364084683 33986.0908286731,19427.66367371846 33952.69752589078,19356.253090758808 33936.56331749493,19321.735843642615 33921.27357616159,19287.694758832455 33905.74402732542,19253.15635343548 33890.37513310311,19219.388465715572 33876.18981430377,19185.126652312465 33861.35936633556,19150.792207022198 33845.62612516538,19115.200473373756 33726.61129250168,18770.38276260812 33723.15650404699,18759.775369219482" color="blue" /><taz id="taz_13" shape="33988.13953439216,18325.594628613442 34099.99947402289,18274.25069777202 34101.999753522105,18274.24923219718 34203.000880210195,18228.248918228783 34212.9998540259,18223.250712738372 34218.99996511603,18221.24871927593 34310.999420664506,18183.25011704024 34370.00047168031,18160.249973225407 34502.288226309116,18106.36773557309 34516.59417026036,18100.542659128085 34513.93873189145,18094.11297917925 34511.91659698251,18089.222504854202 34509.22282159561,18082.707049175166 34507.34816249809,18078.170068854466 34504.95157699706,18072.369730256498 34470.28018338932,17988.703154819086 34451.6779293858,17949.13206016831 34416.263684317004,17873.165967962705 34398.86633406987,17831.84804993309 34381.47330340056,17792.012718617916 34354.82201040373,17729.87578380946 34347.74293968023,17713.370272370055 34318.50839114096,17645.823787949048 34315.61323000619,17634.770016604103 34281.90886761132,17554.63725822419 34247.79228103708,17474.998534809798 34207.220815734705,17493.085562157445 34135.71753781452,17524.95942854043 34096.02412705764,17542.663098290563 34057.435680035385,17560.095999079756 33972.90985753364,17598.274268844165 33934.44742092793,17615.645802562125 33894.288492185646,17633.5889051361 33770.42221318639,17688.30010646768 33758.5899385825,17693.606706177816 33786.82212584198,17776.05156607367 33814.420260030776,17857.49223008938 33842.59208307951,17939.939806885086 33870.373098883894,18021.470673335716 33875.00014946307,18036.251187986694 33943.00011214148,18224.24994326569 33976.000248194905,18324.25117120333 33977.99872588925,18330.249360465445 33988.13953439216,18325.594628613442" color="blue" /><taz id="taz_14" shape="35598.33669921174,17068.580855754204 34881.24238810106,17068.29867418483 34864.81844168436,17068.293529837392 34762.04758195905,17094.12584315054 34683.860197331756,17113.776790464297 34674.215358136455,17116.200476675294 34647.05320919154,17124.082106644288 34472.109288426,17191.617442184128 34416.25800715666,17214.63399387896 34349.193072835216,17243.408211992122 34312.03026486025,17259.10939185042 34267.573629539926,17278.870294383727 34218.15874905058,17299.933000495657 34179.44897253439,17317.73844139371 34136.43455854454,17335.80909919273 34061.89719130099,17368.189261260442 34023.761409746716,17384.64984028414 33979.02325935231,17404.31282046251 33903.49386483955,17437.32033381611 33864.56371355045,17454.33046180196 33702.43956318544,17524.805041602813 33701.60913370119,17525.160398093984 33730.56073479494,17608.643914848566 33758.5899385825,17693.606706177816 33770.42221318639,17688.30010646768 33894.288492185646,17633.5889051361 33934.44742092793,17615.645802562125 33972.90985753364,17598.274268844165 34057.435680035385,17560.095999079756 34096.02412705764,17542.663098290563 34135.71753781452,17524.95942854043 34207.220815734705,17493.085562157445 34247.79228103708,17474.998534809798 34287.07163468038,17457.540599103086 34342.84397832549,17432.758764214814 34383.56837515242,17415.552083576098 34421.0117958826,17399.238635051996 34489.6718699974,17369.51454948727 34544.112994079944,17362.034333962947 34696.80628575641,17295.270162051544 34725.94264871662,17280.35837643314 34773.41226596292,17266.672897258773 34843.58636933169,17251.835685224272 34948.328121256665,17229.692519498058 34970.560846878914,17229.6643209178 35681.01555055706,17228.804058224894 35598.33669921174,17068.580855754204" color="blue" /><taz id="taz_15" shape="35598.33669921174,17068.580855754204 35461.41836017207,16819.487744440325 34740.23773740255,16813.547392641194 34724.77582280431,16813.41908666119 34566.645532245864,16825.96925261803 34517.823948316625,16847.52551441919 34365.17215958482,16914.291219171137 34356.28966430877,16917.896926322952 34312.92072201113,16938.197989788838 34190.9523738866,16991.942146091722 34104.21547563863,17029.29852506332 34059.6730188455,17047.470536831766 34013.40307814116,17067.104681267403 33898.43523360579,17117.40025284514 33808.93820986303,17155.782031976618 33746.9124478742,17183.72663459927 33713.39464275958,17198.52045250032 33600.20246940374,17247.49956322089 33664.999776616576,17417.25070434995 33701.60913370119,17525.160398093984 33702.43956318544,17524.805041602813 33864.56371355045,17454.33046180196 33903.49386483955,17437.32033381611 33979.02325935231,17404.31282046251 34023.761409746716,17384.64984028414 34061.89719130099,17368.189261260442 34136.43455854454,17335.80909919273 34179.44897253439,17317.73844139371 34218.15874905058,17299.933000495657 34267.573629539926,17278.870294383727 34312.03026486025,17259.10939185042 34349.193072835216,17243.408211992122 34416.25800715666,17214.63399387896 34472.109288426,17191.617442184128 34647.05320919154,17124.082106644288 34674.215358136455,17116.200476675294 34683.860197331756,17113.776790464297 34762.04758195905,17094.12584315054 34864.81844168436,17068.293529837392 34881.24238810106,17068.29867418483 35598.33669921174,17068.580855754204" color="blue" /><taz id="taz_16" shape="35461.41836017207,16819.487744440325 35301.26615448692,16508.597618624568 34623.07098353503,1