<?xml version="1.0" encoding="UTF-8"?>

<!-- generated on 09/03/20 14:23:28 by Eclipse SUMO duarouter Version 1.6.0
<configuration xmlns:xsi="http://www.w3.org/2001/XMLSchema-instance" xsi:noNamespaceSchemaLocation="http://sumo.dlr.de/xsd/duarouterConfiguration.xsd">

    <input>
        <net-file value="C:\Users\epicb\Documents\GitHub\SumoLachineArea\Montreal/montreal.net.xml"/>
        <route-files value="C:\Users\epicb\Documents\GitHub\SumoLachineArea\Montreal/Trips/montreal.passenger.trips.xml"/>
    </input>

    <output>
        <output-file value="C:\Users\epicb\Documents\GitHub\SumoLachineArea\Montreal/Trips/montreal.passenger.trips.xml.tmp"/>
        <write-trips value="true"/>
    </output>

    <time>
        <begin value="0"/>
        <end value="360.0"/>
    </time>

    <report>
        <no-warnings value="true"/>
        <ignore-errors value="true"/>
        <no-step-log value="true"/>
    </report>

</configuration>
-->

<routes xmlns:xsi="http://www.w3.org/2001/XMLSchema-instance" xsi:noNamespaceSchemaLocation="http://sumo.dlr.de/xsd/routes_file.xsd">
    <vType id="veh_passenger" vClass="passenger"/>
    <trip id="veh0" type="veh_passenger" depart="0.00" departLane="best" from="34136060" to="-159510745#8"/>
    <trip id="veh1" type="veh_passenger" depart="0.75" departLane="best" from="-46689050#7" to="-455030847"/>
    <trip id="veh2" type="veh_passenger" depart="1.50" departLane="best" from="452652516" to="39988693#0"/>
    <trip id="veh3" type="veh_passenger" depart="2.25" departLane="best" from="476069398#0" to="-21166126#34"/>
    <trip id="veh4" type="veh_passenger" depart="3.00" departLane="best" from="183658271#4" to="-164772700#8"/>
    <trip id="veh5" type="veh_passenger" depart="3.75" departLane="best" from="-452403741" to="22770681#1"/>
    <trip id="veh6" type="veh_passenger" depart="4.50" departLane="best" from="-16309897#1" to="-422668954#10"/>
    <trip id="veh7" type="veh_passenger" depart="5.25" departLane="best" from="361817853" to="23027135#8"/>
    <trip id="veh8" type="veh_passenger" depart="6.00" departLane="best" from="-452676188" to="27208139#0"/>
    <trip id="veh9" type="veh_passenger" depart="6.75" departLane="best" from="460713698#1" to="-110615651#2"/>
    <trip id="veh10" type="veh_passenger" depart="7.50" departLane="best" from="460520072" to="4320453#0"/>
    <trip id="veh11" type="veh_passenger" depart="8.25" departLane="best" from="107998613#5" to="-27342507#6"/>
    <trip id="veh12" type="veh_passenger" depart="9.00" departLane="best" from="607045987#1" to="110726119#1"/>
    <trip id="veh13" type="veh_passenger" depart="9.75" departLane="best" departSpeed="max" from="-21821043#1" to="-22566313"/>
    <trip id="veh14" type="veh_passenger" depart="10.50" departLane="best" from="46678064#1" to="288388572#1"/>
    <trip id="veh15" type="veh_passenger" depart="11.25" departLane="best" from="460561538#2" to="452267142#1"/>
    <trip id="veh16" type="veh_passenger" depart="12.00" departLane="best" from="22894984#1" to="68749902#0"/>
    <trip id="veh17" type="veh_passenger" depart="12.75" departLane="best" from="157802496#3" to="23889656"/>
    <trip id="veh18" type="veh_passenger" depart="13.50" departLane="best" from="4640305#3" to="32755804#2"/>
    <trip id="veh19" type="veh_passenger" depart="14.25" departLane="best" from="46701802" to="26663353#13"/>
    <trip id="veh20" type="veh_passenger" depart="15.00" departLane="best" from="433805254#1" to="-176210463"/>
    <trip id="veh21" type="veh_passenger" depart="15.75" departLane="best" from="-453946160#2" to="-483203653"/>
    <trip id="veh22" type="veh_passenger" depart="16.50" departLane="best" from="-20703158" to="-45792989"/>
    <trip id="veh23" type="veh_passenger" depart="17.25" departLane="best" departSpeed="max" from="-22770778#1" to="-47471060#2"/>
    <trip id="veh24" type="veh_passenger" depart="18.00" departLane="best" from="333889797#0" to="152517126#11"/>
    <trip id="veh25" type="veh_passenger" depart="18.75" departLane="best" from="13684453#9" to="-452059191"/>
    <trip id="veh26" type="veh_passenger" depart="19.50" departLane="best" from="-46678065#1" to="554029773"/>
    <trip id="veh27" type="veh_passenger" depart="20.25" departLane="best" from="360154158" to="30176472#0"/>
    <trip id="veh28" type="veh_passenger" depart="21.00" departLane="best" from="-32656311#0" to="452102189#1"/>
    <trip id="veh29" type="veh_passenger" depart="21.75" departLane="best" from="-279920210#1" to="164826485#4"/>
    <trip id="veh30" type="veh_passenger" depart="22.50" departLane="best" from="802031360" to="351533901#5"/>
    <trip id="veh31" type="veh_passenger" depart="23.25" departLane="best" from="237846560#15" to="412073081#6"/>
    <trip id="veh32" type="veh_passenger" depart="24.00" departLane="best" from="46619611" to="455243731#0"/>
    <trip id="veh33" type="veh_passenger" depart="24.75" departLane="best" from="-454013380#4" to="-164828271#0"/>
    <trip id="veh34" type="veh_passenger" depart="25.50" departLane="best" from="-561761036#1" to="-46703436"/>
    <trip id="veh35" type="veh_passenger" depart="26.25" departLane="best" departSpeed="max" from="-435469073#6" to="561511406"/>
    <trip id="veh36" type="veh_passenger" depart="27.00" departLane="best" from="47468237" to="-706744173#2"/>
    <trip id="veh37" type="veh_passenger" depart="27.75" departLane="best" from="368131069" to="165096597#0"/>
    <trip id="veh38" type="veh_passenger" depart="28.50" departLane="best" from="487156584#5" to="20441244#2"/>
    <trip id="veh39" type="veh_passenger" depart="29.25" departLane="best" from="-46619649#3" to="-463851676"/>
    <trip id="veh40" type="veh_passenger" depart="30.00" departLane="best" from="24351721#6" to="-46686609#2"/>
    <trip id="veh41" type="veh_passenger" depart="30.75" departLane="best" from="26719681#2" to="47919084"/>
    <trip id="veh42" type="veh_passenger" depart="31.50" departLane="best" from="164974782#1" to="-453735818"/>
    <trip id="veh43" type="veh_passenger" depart="32.25" departLane="best" from="87370323#3" to="22781486#5"/>
    <trip id="veh44" type="veh_passenger" depart="33.00" departLane="best" departSpeed="max" from="-21312925#2" to="-182552796#1"/>
    <trip id="veh45" type="veh_passenger" depart="33.75" departLane="best" from="-22891953#14" to="329989915#2"/>
    <trip id="veh46" type="veh_passenger" depart="34.50" departLane="best" from="456366655#3" to="197534962#1"/>
    <trip id="veh47" type="veh_passenger" depart="35.25" departLane="best" from="-20216708#3" to="164828270#8"/>
    <trip id="veh48" type="veh_passenger" depart="36.00" departLane="best" from="832706762#5" to="22909388#2"/>
    <trip id="veh49" type="veh_passenger" depart="36.75" departLane="best" from="683983707" to="467443698"/>
    <trip id="veh50" type="veh_passenger" depart="37.50" departLane="best" departSpeed="max" from="-114145854" to="451864531#1"/>
    <trip id="veh51" type="veh_passenger" depart="38.25" departLane="best" from="40294474#11" to="22910815#2"/>
    <trip id="veh52" type="veh_passenger" depart="39.00" departLane="best" from="-46678062#2" to="35360031#6"/>
    <trip id="veh53" type="veh_passenger" depart="39.75" departLane="best" from="-22892162#1" to="20113497#0"/>
    <trip id="veh54" type="veh_passenger" depart="40.50" departLane="best" from="20221690#4" to="59877180#3"/>
    <trip id="veh55" type="veh_passenger" depart="41.25" departLane="best" from="47468199#1" to="-46686758#4"/>
    <trip id="veh56" type="veh_passenger" depart="42.00" departLane="best" from="21306275#1" to="-354348777"/>
    <trip id="veh57" type="veh_passenger" depart="42.75" departLane="best" from="48530874#10" to="474555863#0"/>
    <trip id="veh58" type="veh_passenger" depart="43.50" departLane="best" from="-483160783#1" to="35152208#2"/>
    <trip id="veh59" type="veh_passenger" depart="44.25" departLane="best" from="29146033#5" to="-27208872"/>
    <trip id="veh60" type="veh_passenger" depart="45.00" departLane="best" from="453760409#7" to="22915646#1"/>
    <trip id="veh61" type="veh_passenger" depart="45.75" departLane="best" from="455252470#24" to="22909931#13"/>
    <trip id="veh62" type="veh_passenger" depart="46.50" departLane="best" from="-102601065#2" to="-86121520#5"/>
    <trip id="veh63" type="veh_passenger" depart="47.25" departLane="best" from="-12718484#5" to="538517719#2"/>
    <trip id="veh64" type="veh_passenger" depart="48.00" departLane="best" from="47471061#2" to="464708839#2"/>
    <trip id="veh65" type="veh_passenger" depart="48.75" departLane="best" from="-533505830#0" to="-20113823#2"/>
    <trip id="veh66" type="veh_passenger" depart="49.50" departLane="best" from="47470945#4" to="562485173"/>
    <trip id="veh67" type="veh_passenger" depart="50.25" departLane="best" from="-20918383#3" to="21019647#14"/>
    <trip id="veh68" type="veh_passenger" depart="51.00" departLane="best" from="-20413533" to="453946166"/>
    <trip id="veh69" type="veh_passenger" depart="51.75" departLane="best" from="453997472" to="-23988686"/>
    <trip id="veh70" type="veh_passenger" depart="52.50" departLane="best" from="20512943#3" to="237298402"/>
    <trip id="veh71" type="veh_passenger" depart="53.25" departLane="best" from="-46619683#1" to="47467042#3"/>
    <trip id="veh72" type="veh_passenger" depart="54.00" departLane="best" from="184692882" to="-452636498#17"/>
    <trip id="veh73" type="veh_passenger" depart="54.75" departLane="best" from="22909975#3" to="452268399#2"/>
    <trip id="veh74" type="veh_passenger" depart="55.50" departLane="best" from="-40662019#3" to="-659568850#1"/>
    <trip id="veh75" type="veh_passenger" depart="56.25" departLane="best" from="827392078#2" to="366840862#14"/>
    <trip id="veh76" type="veh_passenger" depart="57.00" departLane="best" from="19938444#3" to="22891846"/>
    <trip id="veh77" type="veh_passenger" depart="57.75" departLane="best" from="-22910809#0" to="-455264707#1"/>
    <trip id="veh78" type="veh_passenger" depart="58.50" departLane="best" from="10530810#0" to="27206632#0"/>
    <trip id="veh79" type="veh_passenger" depart="59.25" departLane="best" from="-454825703" to="-453975578"/>
    <trip id="veh80" type="veh_passenger" depart="60.00" departLane="best" from="-20415446#6" to="332017012#8"/>
    <trip id="veh81" type="veh_passenger" depart="60.75" departLane="best" from="-454008096#3" to="48423986#1"/>
    <trip id="veh82" type="veh_passenger" depart="61.50" departLane="best" from="466895705#6" to="-20443211#4"/>
    <trip id="veh83" type="veh_passenger" depart="62.25" departLane="best" from="-45572879#2" to="393674972#0"/>
    <trip id="veh84" type="veh_passenger" depart="63.00" departLane="best" departSpeed="max" from="-444490475" to="-251721743#8"/>
    <trip id="veh85" type="veh_passenger" depart="63.75" departLane="best" from="548718283#2" to="26120305#16"/>
    <trip id="veh86" type="veh_passenger" depart="64.50" departLane="best" from="20447051#4" to="45571016#1"/>
    <trip id="veh87" type="veh_passenger" depart="65.25" departLane="best" from="460561555#1" to="-393872217#1"/>
    <trip id="veh88" type="veh_passenger" depart="66.00" departLane="best" from="-219809626#3" to="19944223#1"/>
    <trip id="veh89" type="veh_passenger" depart="66.75" departLane="best" from="184759853#1" to="20517239"/>
    <trip id="veh90" type="veh_passenger" depart="67.50" departLane="best" from="452065074#1" to="39442470#0"/>
    <trip id="veh91" type="veh_passenger" depart="68.25" departLane="best" from="75608020#0" to="-22770748#0"/>
    <trip id="veh92" type="veh_passenger" depart="69.00" departLane="best" from="165085290#0" to="11200435#3"/>
    <trip id="veh93" type="veh_passenger" depart="69.75" departLane="best" from="46700787#1" to="-464053094"/>
    <trip id="veh94" type="veh_passenger" depart="70.50" departLane="best" departSpeed="max" from="-369968235#1" to="20291837#7"/>
    <trip id="veh95" type="veh_passenger" depart="71.25" departLane="best" from="183658271#10" to="-47471197#0"/>
    <trip id="veh96" type="veh_passenger" depart="72.00" departLane="best" from="-462495298#0" to="51423884#4"/>
    <trip id="veh97" type="veh_passenger" depart="72.75" departLane="best" from="20112792#4" to="467936382#5"/>
    <trip id="veh98" type="veh_passenger" depart="73.50" departLane="best" from="22915983#1" to="-185081191#12"/>
    <trip id="veh99" type="veh_passenger" depart="74.25" departLane="best" from="94047296" to="465366313"/>
    <trip id="veh100" type="veh_passenger" depart="75.00" departLane="best" from="680965937#0" to="527395824#6"/>
    <trip id="veh101" type="veh_passenger" depart="75.75" departLane="best" from="46678151#0" to="-32798841#2"/>
    <trip id="veh102" type="veh_passenger" depart="76.50" departLane="best" from="20872093#0" to="-453282478#4"/>
    <trip id="veh103" type="veh_passenger" depart="77.25" departLane="best" from="165060251#14" to="-20176253#1"/>
    <trip id="veh104" type="veh_passenger" depart="78.00" departLane="best" from="15914788#2" to="776650852#18"/>
    <trip id="veh105" type="veh_passenger" depart="78.75" departLane="best" from="-46620330#5" to="45570338#2"/>
    <trip id="veh106" type="veh_passenger" depart="79.50" departLane="best" from="20226452#0" to="19854017#7"/>
    <trip id="veh107" type="veh_passenger" depart="80.25" departLane="best" from="607069769" to="828600790#6"/>
    <trip id="veh108" type="veh_passenger" depart="81.00" departLane="best" from="236426204#2" to="449819614#0"/>
    <trip id="veh109" type="veh_passenger" depart="81.75" departLane="best" from="-27175873#0" to="-51505220#4"/>
    <trip id="veh110" type="veh_passenger" depart="82.50" departLane="best" from="680923345#1" to="26719655"/>
    <trip id="veh111" type="veh_passenger" depart="83.25" departLane="best" from="22910433" to="453511883#2"/>
    <trip id="veh112" type="veh_passenger" depart="84.00" departLane="best" departSpeed="max" from="-19944230#1" to="27126943"/>
    <trip id="veh113" type="veh_passenger" depart="84.75" departLane="best" from="21817398#1" to="46686695#3"/>
    <trip id="veh114" type="veh_passenger" depart="85.50" departLane="best" from="-27208446#7" to="620404423#2"/>
    <trip id="veh115" type="veh_passenger" depart="86.25" departLane="best" from="-20710801#0" to="-37814023#4"/>
    <trip id="veh116" type="veh_passenger" depart="87.00" departLane="best" from="27208440#1" to="396983242#2"/>
    <trip id="veh117" type="veh_passenger" depart="87.75" departLane="best" from="-45570265#2" to="-22915616#0"/>
    <trip id="veh118" type="veh_passenger" depart="88.50" departLane="best" from="47569689#4" to="-463836595"/>
    <trip id="veh119" type="veh_passenger" depart="89.25" departLane="best" from="27208206#6" to="32793924#3"/>
    <trip id="veh120" type="veh_passenger" depart="90.00" departLane="best" departSpeed="max" from="182624086" to="27126856"/>
    <trip id="veh121" type="veh_passenger" depart="90.75" departLane="best" from="22884651" to="548718289"/>
    <trip id="veh122" type="veh_passenger" depart="91.50" departLane="best" departSpeed="max" from="-422275234" to="445214302#3"/>
    <trip id="veh123" type="veh_passenger" depart="92.25" departLane="best" from="-45573095" to="165096598#2"/>
    <trip id="veh124" type="veh_passenger" depart="93.00" departLane="best" from="393658309#3" to="-542817476#2"/>
    <trip id="veh125" type="veh_passenger" depart="93.75" departLane="best" from="-562426894" to="453527818#0"/>
    <trip id="veh126" type="veh_passenger" depart="94.50" departLane="best" from="-20444763#2" to="20415463#1"/>
    <trip id="veh127" type="veh_passenger" depart="95.25" departLane="best" from="92352267#0" to="83895940#3"/>
    <trip id="veh128" type="veh_passenger" depart="96.00" departLane="best" from="-20448134#1" to="-453012230#0"/>
    <trip id="veh129" type="veh_passenger" depart="96.75" departLane="best" from="-46620330#5" to="546036237#1"/>
    <trip id="veh130" type="veh_passenger" depart="97.50" departLane="best" from="47471528" to="47471458#5"/>
    <trip id="veh131" type="veh_passenger" depart="98.25" departLane="best" from="13541318#1" to="-284915234#4"/>
    <trip id="veh132" type="veh_passenger" depart="99.00" departLane="best" from="464724766#2" to="435433084"/>
    <trip id="veh133" type="veh_passenger" depart="99.75" departLane="best" from="296382846#4" to="786923343#6"/>
    <trip id="veh134" type="veh_passenger" depart="100.50" departLane="best" from="366902787#3" to="-110996653#0"/>
    <trip id="veh135" type="veh_passenger" depart="101.25" departLane="best" from="462349334#0" to="-538851398#10"/>
    <trip id="veh136" type="veh_passenger" depart="102.00" departLane="best" from="37859258#3" to="555505989#7"/>
    <trip id="veh137" type="veh_passenger" depart="102.75" departLane="best" from="-25079348#3" to="-22910195#1"/>
    <trip id="veh138" type="veh_passenger" depart="103.50" departLane="best" from="-22884662#1" to="240505088"/>
    <trip id="veh139" type="veh_passenger" depart="104.25" departLane="best" from="-46686872#0" to="291544886#1"/>
    <trip id="veh140" type="veh_passenger" depart="105.00" departLane="best" from="439879818#1" to="-435469623#2"/>
    <trip id="veh141" type="veh_passenger" depart="105.75" departLane="best" from="331089342#2" to="-46686910"/>
    <trip id="veh142" type="veh_passenger" depart="106.50" departLane="best" from="20906190#5" to="48422509"/>
    <trip id="veh143" type="veh_passenger" depart="107.25" departLane="best" from="466597407" to="-21849235#2"/>
    <trip id="veh144" type="veh_passenger" depart="108.00" departLane="best" from="184759853#0" to="-47470860#0"/>
    <trip id="veh145" type="veh_passenger" depart="108.75" departLane="best" from="-110166869" to="454888148"/>
    <trip id="veh146" type="veh_passenger" depart="109.50" departLane="best" from="335592319#2" to="-46680194"/>
    <trip id="veh147" type="veh_passenger" depart="110.25" departLane="best" from="453265907#2" to="23879696#6"/>
    <trip id="veh148" type="veh_passenger" depart="111.00" departLane="best" from="189631829#2" to="-112840731#1"/>
    <trip id="veh149" type="veh_passenger" depart="111.75" departLane="best" from="-20565281#0" to="475071593#0"/>
    <trip id="veh150" type="veh_passenger" depart="112.50" departLane="best" from="48211026#0" to="23032937#4"/>
    <trip id="veh151" type="veh_passenger" depart="113.25" departLane="best" from="464907154" to="26987223#2"/>
    <trip id="veh152" type="veh_passenger" depart="114.00" departLane="best" from="-26663586#6" to="-23879469#0"/>
    <trip id="veh153" type="veh_passenger" depart="114.75" departLane="best" from="-538517719#0" to="479346677#0"/>
    <trip id="veh154" type="veh_passenger" depart="115.50" departLane="best" from="45796165#0" to="467438986#0"/>
    <trip id="veh155" type="veh_passenger" depart="116.25" departLane="best" from="47919101#4" to="-452082867"/>
    <trip id="veh156" type="veh_passenger" depart="117.00" departLane="best" from="-462334903" to="-22791722#1"/>
    <trip id="veh157" type="veh_passenger" depart="117.75" departLane="best" from="455264712#0" to="475241415#7"/>
    <trip id="veh158" type="veh_passenger" depart="118.50" departLane="best" from="165149828" to="32799230#11"/>
    <trip id="veh159" type="veh_passenger" depart="119.25" departLane="best" from="-27175515#1" to="538851398#1"/>
    <trip id="veh160" type="veh_passenger" depart="120.00" departLane="best" from="471419147#1" to="717921577#1"/>
    <trip id="veh161" type="veh_passenger" depart="120.75" departLane="best" from="460917733" to="474753356#1"/>
    <trip id="veh162" type="veh_passenger" depart="121.50" departLane="best" from="-157714265#6" to="453012234"/>
    <trip id="veh163" type="veh_passenger" depart="122.25" departLane="best" from="-8140255#2" to="541187707#4"/>
    <trip id="veh164" type="veh_passenger" depart="123.00" departLane="best" from="459833711" to="471483856"/>
    <trip id="veh165" type="veh_passenger" depart="123.75" departLane="best" from="460917729#2" to="-46689113#2"/>
    <trip id="veh166" type="veh_passenger" depart="124.50" departLane="best" from="45571123#0" to="-22892053#1"/>
    <trip id="veh167" type="veh_passenger" depart="125.25" departLane="best" from="474647287#4" to="46699731#1"/>
    <trip id="veh168" type="veh_passenger" depart="126.00" departLane="best" from="-453485940#1" to="462570673"/>
    <trip id="veh169" type="veh_passenger" depart="126.75" departLane="best" departSpeed="max" from="20314460#0" to="-561499303"/>
    <trip id="veh170" type="veh_passenger" depart="127.50" departLane="best" from="457933672#8" to="-45570307#8"/>
    <trip id="veh171" type="veh_passenger" depart="128.25" departLane="best" from="-152517112#3" to="-40294476#1"/>
    <trip id="veh172" type="veh_passenger" depart="129.00" departLane="best" from="-747435033" to="471491764"/>
    <trip id="veh173" type="veh_passenger" depart="129.75" departLane="best" from="677782932" to="-47471328#6"/>
    <trip id="veh174" type="veh_passenger" depart="130.50" departLane="best" from="3453107" to="165217834#2"/>
    <trip id="veh175" type="veh_passenger" depart="131.25" departLane="best" from="733974069" to="22910776#0"/>
    <trip id="veh176" type="veh_passenger" depart="132.00" departLane="best" from="555505985#28" to="-22910192"/>
    <trip id="veh177" type="veh_passenger" depart="132.75" departLane="best" from="682295371#0" to="-354343233"/>
    <trip id="veh178" type="veh_passenger" depart="133.50" departLane="best" from="635298376" to="-46688960"/>
    <trip id="veh179" type="veh_passenger" depart="134.25" departLane="best" from="-22891682#0" to="20113489#6"/>
    <trip id="veh180" type="veh_passenger" depart="135.00" departLane="best" from="452062043#0" to="-684244572#0"/>
    <trip id="veh181" type="veh_passenger" depart="135.75" departLane="best" from="28738711#3" to="22797079"/>
    <trip id="veh182" type="veh_passenger" depart="136.50" departLane="best" from="164759183" to="266069592"/>
    <trip id="veh183" type="veh_passenger" depart="137.25" departLane="best" from="-463835930" to="436375737#2"/>
    <trip id="veh184" type="veh_passenger" depart="138.00" departLane="best" from="-106665039#14" to="525446544#7"/>
    <trip id="veh185" type="veh_passenger" depart="138.75" departLane="best" from="22909937#6" to="450921046#1"/>
    <trip id="veh186" type="veh_passenger" depart="139.50" departLane="best" from="453278545#1" to="393726762#2"/>
    <trip id="veh187" type="veh_passenger" depart="140.25" departLane="best" from="12720889#3" to="-20415468#1"/>
    <trip id="veh188" type="veh_passenger" depart="141.00" departLane="best" from="37891137#7" to="108156540#2"/>
    <trip id="veh189" type="veh_passenger" depart="141.75" departLane="best" from="-560963931#2" to="46678271#1"/>
    <trip id="veh190" type="veh_passenger" depart="142.50" departLane="best" from="449521199" to="-542827870#3"/>
    <trip id="veh191" type="veh_passenger" depart="143.25" departLane="best" from="-541047205" to="177235878"/>
    <trip id="veh192" type="veh_passenger" depart="144.00" departLane="best" from="165085269#0" to="-503377032#0"/>
    <trip id="veh193" type="veh_passenger" depart="144.75" departLane="best" from="-23026596#1" to="197414377"/>
    <trip id="veh194" type="veh_passenger" depart="145.50" departLane="best" from="560747427" to="401054486"/>
    <trip id="veh195" type="veh_passenger" depart="146.25" departLane="best" from="481306093#0" to="315474040#2"/>
    <trip id="veh196" type="veh_passenger" depart="147.00" departLane="best" from="-48531009#1" to="234155501#3"/>
    <trip id="veh197" type="veh_passenger" depart="147.75" departLane="best" from="-102601063#13" to="-477880458#2"/>
    <trip id="veh198" type="veh_passenger" depart="148.50" departLane="best" from="197411513" to="26902036#4"/>
    <trip id="veh199" type="veh_passenger" depart="149.25" departLane="best" from="367854751#11" to="20448130#5"/>
    <trip id="veh200" type="veh_passenger" depart="150.00" departLane="best" from="20112439#8" to="-453281033"/>
    <trip id="veh201" type="veh_passenger" depart="150.75" departLane="best" from="20448115#4" to="48114733"/>
    <trip id="veh202" type="veh_passenger" depart="151.50" departLane="best" from="45796000#0" to="-32818088#0"/>
    <trip id="veh203" type="veh_passenger" depart="152.25" departLane="best" from="-20907684#3" to="22884734#5"/>
    <trip id="veh204" type="veh_passenger" depart="153.00" departLane="best" from="330153490#0" to="110479379#6"/>
    <trip id="veh205" type="veh_passenger" depart="153.75" departLane="best" from="462570684#3" to="453523519"/>
    <trip id="veh206" type="veh_passenger" depart="154.50" departLane="best" from="393674979#2" to="-455264704"/>
    <trip id="veh207" type="veh_passenger" depart="155.25" departLane="best" from="-401315625#2" to="-157742981#2"/>
    <trip id="veh208" type="veh_passenger" depart="156.00" departLane="best" from="-460503458" to="20712091#1"/>
    <trip id="veh209" type="veh_passenger" depart="156.75" departLane="best" from="46678355#2" to="-20512954#1"/>
    <trip id="veh210" type="veh_passenger" depart="157.50" departLane="best" from="169869652#2" to="331089332#0"/>
    <trip id="veh211" type="veh_passenger" depart="158.25" departLane="best" from="-38742488#1" to="42904100#0"/>
    <trip id="veh212" type="veh_passenger" depart="159.00" departLane="best" from="21001469" to="-463440565"/>
    <trip id="veh213" type="veh_passenger" depart="159.75" departLane="best" departSpeed="max" from="369967861#0" to="-110406911#0"/>
    <trip id="veh214" type="veh_passenger" depart="160.50" departLane="best" from="453511897#3" to="454842389#1"/>
    <trip id="veh215" type="veh_passenger" depart="161.25" departLane="best" from="-22884404#0" to="19908076#6"/>
    <trip id="veh216" type="veh_passenger" depart="162.00" departLane="best" from="-32817979#0" to="607184178"/>
    <trip id="veh217" type="veh_passenger" depart="162.75" departLane="best" from="22781606#1" to="-184752132#3"/>
    <trip id="veh218" type="veh_passenger" depart="163.50" departLane="best" departSpeed="max" from="-462285595#1" to="46678368"/>
    <trip id="veh219" type="veh_passenger" depart="164.25" departLane="best" from="20228755#7" to="459998882"/>
    <trip id="veh220" type="veh_passenger" depart="165.00" departLane="best" from="38652043#1" to="792160913#2"/>
    <trip id="veh221" type="veh_passenger" depart="165.75" departLane="best" from="27208542#0" to="581649420#2"/>
    <trip id="veh222" type="veh_passenger" depart="166.50" departLane="best" from="476014544#0" to="31016199#14"/>
    <trip id="veh223" type="veh_passenger" depart="167.25" departLane="best" from="448169140#0" to="22662983"/>
    <trip id="veh224" type="veh_passenger" depart="168.00" departLane="best" from="464090412#1" to="234155501#10"/>
    <trip id="veh225" type="veh_passenger" depart="168.75" departLane="best" from="477683040#0" to="453483726#0"/>
    <trip id="veh226" type="veh_passenger" depart="169.50" departLane="best" from="20508423#0" to="-46678153"/>
    <trip id="veh227" type="veh_passenger" depart="170.25" departLane="best" from="-461136108#1" to="346022158#3"/>
    <trip id="veh228" type="veh_passenger" depart="171.00" departLane="best" from="453997471" to="22892181#2"/>
    <trip id="veh229" type="veh_passenger" depart="171.75" departLane="best" from="32799623#0" to="-47467151#0"/>
    <trip id="veh230" type="veh_passenger" depart="172.50" departLane="best" from="-20634944#1" to="-47652973#0"/>
    <trip id="veh231" type="veh_passenger" depart="173.25" departLane="best" from="-46686644#0" to="-794585383#4"/>
    <trip id="veh232" type="veh_passenger" depart="174.00" departLane="best" from="22910166#2" to="-26083256#4"/>
    <trip id="veh233" type="veh_passenger" depart="174.75" departLane="best" from="-455056523#0" to="427701162#2"/>
    <trip id="veh234" type="veh_passenger" depart="175.50" departLane="best" from="435306538#1" to="-20293967#1"/>
    <trip id="veh235" type="veh_passenger" depart="176.25" departLane="best" from="165214308#9" to="22915953#1"/>
    <trip id="veh236" type="veh_passenger" depart="177.00" departLane="best" from="173966368#1" to="-44838467#22"/>
    <trip id="veh237" type="veh_passenger" depart="177.75" departLane="best" from="182810269#13" to="48422487#1"/>
    <trip id="veh238" type="veh_passenger" depart="178.50" departLane="best" from="26710586#2" to="428978766#0"/>
    <trip id="veh239" type="veh_passenger" depart="179.25" departLane="best" from="46688841#7" to="454188457#1"/>
    <trip id="veh240" type="veh_passenger" depart="180.00" departLane="best" from="162530720#2" to="-110558541#1"/>
    <trip id="veh241" type="veh_passenger" depart="180.75" departLane="best" from="11392456#1" to="453544609#1"/>
    <trip id="veh242" type="veh_passenger" depart="181.50" departLane="best" from="46686641" to="598673768#0"/>
    <trip id="veh243" type="veh_passenger" depart="182.25" departLane="best" from="182399304#4" to="453507342#1"/>
    <trip id="veh244" type="veh_passenger" depart="183.00" departLane="best" departSpeed="max" from="22911189#0" to="28756726#0"/>
    <trip id="veh245" type="veh_passenger" depart="183.75" departLane="best" departSpeed="max" from="-452679925" to="-453745806"/>
    <trip id="veh246" type="veh_passenger" depart="184.50" departLane="best" from="19915708#5" to="-164759185#1"/>
    <trip id="veh247" type="veh_passenger" depart="185.25" departLane="best" from="10249846#0" to="403491817#8"/>
    <trip id="veh248" type="veh_passenger" depart="186.00" departLane="best" from="165090583#0" to="-32248869"/>
    <trip id="veh249" type="veh_passenger" depart="186.75" departLane="best" from="20415473#0" to="-23879696#6"/>
    <trip id="veh250" type="veh_passenger" depart="187.50" departLane="best" from="32656311#2" to="-164612206#1"/>
    <trip id="veh251" type="veh_passenger" depart="188.25" departLane="best" from="164863998#4" to="25381789"/>
    <trip id="veh252" type="veh_passenger" depart="189.00" departLane="best" from="-16423510#1" to="357283759#1"/>