<?xml version="1.0" encoding="UTF-8"?>

<!-- generated on 09/03/20 14:21:42 by Eclipse SUMO duarouter Version 1.6.0
<configuration xmlns:xsi="http://www.w3.org/2001/XMLSchema-instance" xsi:noNamespaceSchemaLocation="http://sumo.dlr.de/xsd/duarouterConfiguration.xsd">

    <input>
        <net-file value="C:\Users\epicb\Documents\GitHub\SumoLachineArea\Montreal/montreal.net.xml"/>
        <route-files value="C:\Users\epicb\Documents\GitHub\SumoLachineArea\Montreal/Trips/montreal.motorcycle.trips.xml"/>
    </input>

    <output>
        <output-file value="C:\Users\epicb\Documents\GitHub\SumoLachineArea\Montreal/Trips/montreal.motorcycle.trips.xml.tmp"/>
        <write-trips value="true"/>
    </output>

    <time>
        <begin value="0"/>
        <end value="360.0"/>
    </time>

    <report>
        <no-warnings value="true"/>
        <ignore-errors value="true"/>
        <no-step-log value="true"/>
    </report>

</configuration>
-->

<routes xmlns:xsi="http://www.w3.org/2001/XMLSchema-instance" xsi:noNamespaceSchemaLocation="http://sumo.dlr.de/xsd/routes_file.xsd">
    <vType id="moto_motorcycle" vClass="motorcycle"/>
    <trip id="moto0" type="moto_motorcycle" depart="0.00" departLane="best" from="25162687#0" to="-25381063"/>
    <trip id="moto1" type="moto_motorcycle" depart="1.50" departLane="best" from="-459086022" to="46689006#0"/>
    <trip id="moto3" type="moto_motorcycle" depart="4.50" departLane="best" from="-20625579#0" to="20667238"/>
    <trip id="moto4" type="moto_motorcycle" depart="6.00" departLane="best" from="377233441#2" to="-20112467"/>
    <trip id="moto6" type="moto_motorcycle" depart="9.00" departLane="best" from="32656460#3" to="46619673#0"/>
    <trip id="moto7" type="moto_motorcycle" depart="10.50" departLane="best" from="-49094547#6" to="360886825#1"/>
    <trip id="moto8" type="moto_motorcycle" depart="12.00" departLane="best" from="-23033038#2" to="19854017#1"/>
    <trip id="moto9" type="moto_motorcycle" depart="13.50" departLane="best" from="46686804#1" to="-502677129"/>
    <trip id="moto10" type="moto_motorcycle" depart="15.00" departLane="best" from="-27208348#4" to="-179130231#0"/>
    <trip id="moto11" type="moto_motorcycle" depart="16.50" departLane="best" from="329915296#0" to="20228749#4"/>
    <trip id="moto12" type="moto_motorcycle" depart="18.00" departLane="best" from="22894971#6" to="22894972#0"/>
    <trip id="moto13" type="moto_motorcycle" depart="19.50" departLane="best" from="329066843#1" to="-452270290"/>
    <trip id="moto16" type="moto_motorcycle" depart="24.00" departLane="best" from="-561524763" to="-773796987#4"/>
    <trip id="moto17" type="moto_motorcycle" depart="25.50" departLane="best" from="20444763#17" to="22894904"/>
    <trip id="moto18" type="moto_motorcycle" depart="27.00" departLane="best" from="452426715#0" to="722002353"/>
    <trip id="moto19" type="moto_motorcycle" depart="28.50" departLane="best" from="21019647#15" to="460044484#0"/>
    <trip id="moto21" type="moto_motorcycle" depart="31.50" departLane="best" from="-152517126#4" to="-75002723#5"/>
    <trip id="moto27" type="moto_motorcycle" depart="40.50" departLane="best" from="27126934#1" to="-110348522#2"/>
    <trip id="moto28" type="moto_motorcycle" depart="42.00" departLane="best" from="-456391092#2" to="20906185#2"/>
    <trip id="moto29" type="moto_motorcycle" depart="43.50" departLane="best" from="455264689#0" to="330153490#0"/>
    <trip id="moto31" type="moto_motorcycle" depart="46.50" departLane="best" from="25380803#1" to="26158868#1"/>
    <trip id="moto32" type="moto_motorcycle" depart="48.00" departLane="best" from="465139822" to="465125809"/>
    <trip id="moto33" type="moto_motorcycle" depart="49.50" departLane="best" from="129640828#0" to="20443803"/>
    <trip id="moto34" type="moto_motorcycle" depart="51.00" departLane="best" from="20196775#1" to="20196775#2"/>
    <trip id="moto35" type="moto_motorcycle" depart="52.50" departLane="best" from="-47472006#1" to="102601063#2"/>
    <trip id="moto36" type="moto_motorcycle" depart="54.00" departLane="best" from="-455083999#2" to="465585477#0"/>
    <trip id="moto38" type="moto_motorcycle" depart="57.00" departLane="best" from="12203277#2" to="11392456#2"/>
    <trip id="moto39" type="moto_motorcycle" depart="58.50" departLane="best" from="10530798#4" to="-10509468"/>
    <trip id="moto40" type="moto_motorcycle" depart="60.00" departLane="best" from="26467603#3" to="-277327652#0"/>
    <trip id="moto42" type="moto_motorcycle" depart="63.00" departLane="best" from="164613162#1" to="164613162#0"/>
    <trip id="moto43" type="moto_motorcycle" depart="64.50" departLane="best" from="177239581#3" to="-277319493#0"/>
    <trip id="moto44" type="moto_motorcycle" depart="66.00" departLane="best" from="361814428#4" to="25381063"/>
    <trip id="moto45" type="moto_motorcycle" depart="67.50" departLane="best" from="-464110263#4" to="453993400#1"/>
    <trip id="moto47" type="moto_motorcycle" depart="70.50" departLane="best" from="20415469" to="164612927#1"/>
    <trip id="moto48" type="moto_motorcycle" depart="72.00" departLane="best" from="490998038#1" to="181647723"/>
    <trip id="moto49" type="moto_motorcycle" depart="73.50" departLane="best" from="-459989915" to="36868944#4"/>
    <trip id="moto51" type="moto_motorcycle" depart="76.50" departLane="best" from="-19944766#0" to="-642677253#3"/>
    <trip id="moto53" type="moto_motorcycle" depart="79.50" departLane="best" from="-20214743#3" to="463678716#1"/>
    <trip id="moto54" type="moto_motorcycle" depart="81.00" departLane="best" from="-20112455#6" to="-354710423#3"/>
    <trip id="moto55" type="moto_motorcycle" depart="82.50" departLane="best" from="-164831287#7" to="-26158868#0"/>
    <trip id="moto57" type="moto_motorcycle" depart="85.50" departLane="best" from="22910787#2" to="22910799#1"/>
    <trip id="moto58" type="moto_motorcycle" depart="87.00" departLane="best" from="-31016041#7" to="-31015801#2"/>
    <trip id="moto59" type="moto_motorcycle" depart="88.50" departLane="best" from="20223693#2" to="20227270#6"/>
    <trip id="moto60" type="moto_motorcycle" depart="90.00" departLane="best" from="463836594" to="29364998#7"/>
    <trip id="moto61" type="moto_motorcycle" depart="91.50" departLane="best" from="21030173#1" to="234155501#2"/>
    <trip id="moto63" type="moto_motorcycle" depart="94.50" departLane="best" from="471493585#3" to="26120289#11"/>
    <trip id="moto68" type="moto_motorcycle" depart="102.00" departLane="best" from="464121430#1" to="807671493#1"/>
    <trip id="moto70" type="moto_motorcycle" depart="105.00" departLane="best" from="164864001#4" to="25906757#11"/>
    <trip id="moto72" type="moto_motorcycle" depart="108.00" departLane="best" from="165265058" to="-26699202#4"/>
    <trip id="moto75" type="moto_motorcycle" depart="112.50" departLane="best" from="4320454#3" to="48921999#1"/>
    <trip id="moto77" type="moto_motorcycle" depart="115.50" departLane="best" from="38651442#2" to="47470984#1"/>
    <trip id="moto78" type="moto_motorcycle" depart="117.00" departLane="best" from="165265049#9" to="-184205746"/>
    <trip id="moto80" type="moto_motorcycle" depart="120.00" departLane="best" from="53759669" to="19908076#7"/>
    <trip id="moto81" type="moto_motorcycle" depart="121.50" departLane="best" from="22894769#1" to="22894595#1"/>
    <trip id="moto82" type="moto_motorcycle" depart="123.00" departLane="best" from="-45571186" to="-45572837#7"/>
    <trip id="moto85" type="moto_motorcycle" depart="127.50" departLane="best" from="-164864002#6" to="164864009#0"/>
    <trip id="moto86" type="moto_motorcycle" depart="129.00" departLane="best" from="-27206613#3" to="436352917#0"/>
    <trip id="moto87" type="moto_motorcycle" depart="130.50" departLane="best" from="31755837" to="461358566#0"/>
    <trip id="moto88" type="moto_motorcycle" depart="132.00" departLane="best" from="452080867" to="-22910787#4"/>
    <trip id="moto90" type="moto_motorcycle" depart="135.00" departLane="best" from="-21895472#1" to="47460012#0"/>
    <trip id="moto92" type="moto_motorcycle" depart="138.00" departLane="best" from="22910787#2" to="22910467#7"/>
    <trip id="moto93" type="moto_motorcycle" depart="139.50" departLane="best" from="165213094#3" to="709767974#6"/>
    <trip id="moto94" type="moto_motorcycle" depart="141.00" departLane="best" from="-46680148" to="110714953"/>
    <trip id="moto95" type="moto_motorcycle" depart="142.50" departLane="best" from="-251721746" to="-251721743#4"/>
    <trip id="moto97" type="moto_motorcycle" depart="145.50" departLane="best" from="20690771#1" to="-19944766#1"/>
    <trip id="moto98" type="moto_motorcycle" depart="147.00" departLane="best" from="454272332" to="451902790#1"/>
    <trip id="moto100" type="moto_motorcycle" depart="150.00" departLane="best" from="374956182#2" to="548252183"/>
    <trip id="moto102" type="moto_motorcycle" depart="153.00" departLane="best" from="164827355#7" to="164826495#4"/>
    <trip id="moto103" type="moto_motorcycle" depart="154.50" departLane="best" from="453726383" to="-20636384#0"/>
    <trip id="moto104" type="moto_motorcycle" depart="156.00" departLane="best" from="11310650#0" to="11410473"/>
    <trip id="moto106" type="moto_motorcycle" depart="159.00" departLane="best" from="124779813#1" to="-25167184#0"/>
    <trip id="moto110" type="moto_motorcycle" depart="165.00" departLane="best" from="20413535#3" to="25865211"/>
    <trip id="moto111" type="moto_motorcycle" depart="166.50" departLane="best" from="20441273#5" to="20441254#1"/>
    <trip id="moto112" type="moto_motorcycle" depart="168.00" departLane="best" from="-32799477" to="484934737"/>
    <trip id="moto113" type="moto_motorcycle" depart="169.50" departLane="best" from="723869799#10" to="464936534#0"/>
    <trip id="moto114" type="moto_motorcycle" depart="171.00" departLane="best" from="-20517244" to="-20514842#0"/>
    <trip id="moto115" type="moto_motorcycle" depart="172.50" departLane="best" departSpeed="max" from="47468235" to="822237466#2"/>
    <trip id="moto116" type="moto_motorcycle" depart="174.00" departLane="best" from="-463836596#4" to="-20570503#0"/>
    <trip id="moto119" type="moto_motorcycle" depart="178.50" departLane="best" from="-38652041#4" to="-47470973#2"/>
    <trip id="moto120" type="moto_motorcycle" depart="180.00" departLane="best" from="12203284#11" to="-785392928#0"/>
    <trip id="moto121" type="moto_motorcycle" depart="181.50" departLane="best" from="-187741990#2" to="-47471312"/>
    <trip id="moto123" type="moto_motorcycle" depart="184.50" departLane="best" from="41230314#1" to="-40662020#2"/>
    <trip id="moto124" type="moto_motorcycle" depart="186.00" departLane="best" from="393658011#23" to="181870303#0"/>
    <trip id="moto125" type="moto_motorcycle" depart="187.50" departLane="best" from="-20412268#0" to="462495295"/>
    <trip id="moto126" type="moto_motorcycle" depart="189.00" departLane="best" from="-453534187" to="561752789"/>
    <trip id="moto127" type="moto_motorcycle" depart="190.50" departLane="best" from="507031517#5" to="-27439837#2"/>
    <trip id="moto128" type="moto_motorcycle" depart="192.00" departLane="best" from="-164772700#5" to="-359756162"/>
    <trip id="moto129" type="moto_motorcycle" depart="193.50" departLane="best" from="20685873#4" to="-20689838"/>
    <trip id="moto130" type="moto_motorcycle" depart="195.00" departLane="best" from="22566259#0" to="-292490777#2"/>
    <trip id="moto131" type="moto_motorcycle" depart="196.50" departLane="best" from="453728091#5" to="411532442#0"/>
    <trip id="moto133" type="moto_motorcycle" depart="199.50" departLane="best" from="-12203284#4" to="-210311233"/>
    <trip id="moto134" type="moto_motorcycle" depart="201.00" departLane="best" from="197981530#0" to="-33111888#1"/>
    <trip id="moto135" type="moto_motorcycle" depart="202.50" departLane="best" from="725171455#3" to="155146721#8"/>
    <trip id="moto136" type="moto_motorcycle" depart="204.00" departLane="best" from="20112440" to="20113488#6"/>
    <trip id="moto138" type="moto_motorcycle" depart="207.00" departLane="best" from="-198243821#0" to="464097865"/>
    <trip id="moto139" type="moto_motorcycle" depart="208.50" departLane="best" from="-452566607#0" to="234156310#0"/>
    <trip id="moto140" type="moto_motorcycle" depart="210.00" departLane="best" from="-20640172#1" to="-20870534#1"/>
    <trip id="moto141" type="moto_motorcycle" depart="211.50" departLane="best" from="-21299606#11" to="25757023#2"/>
    <trip id="moto145" type="moto_motorcycle" depart="217.50" departLane="best" from="23033021" to="-48432503#1"/>
    <trip id="moto146" type="moto_motorcycle" depart="219.00" departLane="best" from="48432509#0" to="-23033039#0"/>
    <trip id="moto147" type="moto_motorcycle" depart="220.50" departLane="best" from="607184015#1" to="330150434#7"/>
    <trip id="moto148" type="moto_motorcycle" depart="222.00" departLane="best" from="475308559#0" to="36675284#2"/>
    <trip id="moto150" type="moto_motorcycle" depart="225.00" departLane="best" from="-22911177#3" to="-22911138#2"/>
    <trip id="moto153" type="moto_motorcycle" depart="229.50" departLane="best" from="21307879#1" to="-21306276#2"/>
    <trip id="moto155" type="moto_motorcycle" depart="232.50" departLane="best" from="555004446#15" to="432958742#2"/>
    <trip id="moto156" type="moto_motorcycle" depart="234.00" departLane="best" from="-22891959#4" to="-453285425#0"/>
    <trip id="moto157" type="moto_motorcycle" depart="235.50" departLane="best" departSpeed="max" from="22892162#0" to="-371654201#3"/>
    <trip id="moto158" type="moto_motorcycle" depart="237.00" departLane="best" from="57733498#11" to="182810149#4"/>
    <trip id="moto159" type="moto_motorcycle" depart="238.50" departLane="best" from="-27208097#1" to="20448122#0"/>
    <trip id="moto161" type="moto_motorcycle" depart="241.50" departLane="best" from="164866724#5" to="471440146#1"/>
    <trip id="moto163" type="moto_motorcycle" depart="244.50" departLane="best" from="-21306877" to="38742118#1"/>
    <trip id="moto166" type="moto_motorcycle" depart="249.00" departLane="best" from="-451912080" to="-164759181#4"/>
    <trip id="moto167" type="moto_motorcycle" depart="250.50" departLane="best" from="-22915855#2" to="22910569#2"/>
    <trip id="moto168" type="moto_motorcycle" depart="252.00" departLane="best" from="164826485#7" to="48424848"/>
    <trip id="moto169" type="moto_motorcycle" depart="253.50" departLane="best" from="-22915705#2" to="460917733"/>
    <trip id="moto170" type="moto_motorcycle" depart="255.00" departLane="best" from="164828272#6" to="23027062#2"/>
    <trip id="moto171" type="moto_motorcycle" depart="256.50" departLane="best" from="455456464#8" to="823834571#0"/>
    <trip id="moto175" type="moto_motorcycle" depart="262.50" departLane="best" from="-453506896" to="157714265#17"/>
    <trip id="moto177" type="moto_motorcycle" depart="265.50" departLane="best" from="-367858272#0" to="464720639#1"/>
    <trip id="moto178" type="moto_motorcycle" depart="267.00" departLane="best" from="4687641#9" to="22072949#1"/>
    <trip id="moto179" type="moto_motorcycle" depart="268.50" departLane="best" from="20572199#6" to="-729931129#5"/>
    <trip id="moto180" type="moto_motorcycle" depart="270.00" departLane="best" from="22892045#1" to="453963468#0"/>
    <trip id="moto181" type="moto_motorcycle" depart="271.50" departLane="best" from="-20180833#5" to="-40037948#1"/>
    <trip id="moto183" type="moto_motorcycle" depart="274.50" departLane="best" from="-24874148" to="-20904887#0"/>
    <trip id="moto184" type="moto_motorcycle" depart="276.00" departLane="best" from="-46688841#0" to="455478688"/>
    <trip id="moto185" type="moto_motorcycle" depart="277.50" departLane="best" from="395307468#0" to="31755826#1"/>
    <trip id="moto186" type="moto_motorcycle" depart="279.00" departLane="best" from="26083344#2" to="182918175#3"/>
    <trip id="moto189" type="moto_motorcycle" depart="283.50" departLane="best" from="476130449#1" to="-822250988#4"/>
    <trip id="moto191" type="moto_motorcycle" depart="286.50" departLane="best" from="46678271#1" to="-46679995#1"/>
    <trip id="moto192" type="moto_motorcycle" depart="288.00" departLane="best" from="453011480#0" to="205572168#7"/>
    <trip id="moto193" type="moto_motorcycle" depart="289.50" departLane="best" from="478332548#3" to="237848505#1"/>
    <trip id="moto194" type="moto_motorcycle" depart="291.00" departLane="best" from="-393702302#0" to="49094547#8"/>
    <trip id="moto195" type="moto_motorcycle" depart="292.50" departLane="best" from="240505089#5" to="20413521#1"/>
    <trip id="moto196" type="moto_motorcycle" depart="294.00" departLane="best" from="-22884733#1" to="22891488#1"/>
    <trip id="moto197" type="moto_motorcycle" depart="295.50" departLane="best" from="46686680#7" to="152517057#0"/>
    <trip id="moto198" type="moto_motorcycle" depart="297.00" departLane="best" from="-29365000#3" to="198357035#2"/>
    <trip id="moto199" type="moto_motorcycle" depart="298.50" departLane="best" from="-48114721#1" to="-20415464#2"/>
    <trip id="moto200" type="moto_motorcycle" depart="300.00" departLane="best" from="25915538#13" to="-25916344#7"/>
    <trip id="moto201" type="moto_motorcycle" depart="301.50" departLane="best" from="20219130#4" to="20216941#4"/>
    <trip id="moto206" type="moto_motorcycle" depart="309.00" departLane="best" from="27205935#1" to="-27204614"/>
    <trip id="moto208" type="moto_motorcycle" depart="312.00" departLane="best" from="-541047204#1" to="164612206#1"/>
    <trip id="moto209" type="moto_motorcycle" depart="313.50" departLane="best" from="32799334#3" to="-431435779#2"/>
    <trip id="moto212" type="moto_motorcycle" depart="318.00" departLane="best" from="46620463#3" to="561706750#7"/>
    <trip id="moto213" type="moto_motorcycle" depart="319.50" departLane="best" from="-530929054#0" to="530929054#3"/>
    <trip id="moto214" type="moto_motorcycle" depart="321.00" departLane="best" from="35745284#0" to="-27421703#0"/>
    <trip id="moto215" type="moto_motorcycle" depart="322.50" departLane="best" from="463830311" to="37814023#3"/>
    <trip id="moto217" type="moto_motorcycle" depart="325.50" departLane="best" from="550879667" to="-46678271#0"/>
    <trip id="moto218" type="moto_motorcycle" depart="327.00" departLane="best" from="-22915736#1" to="111470994"/>
    <trip id="moto220" type="moto_motorcycle" depart="330.00" departLane="best" from="474555867#1" to="165325607#0"/>
    <trip id="moto222" type="moto_motorcycle" depart="333.00" departLane="best" from="20195008#0" to="20196781"/>
    <trip id="moto223" type="moto_motorcycle" depart="334.50" departLane="best" from="185081191#13" to="45570264#2"/>
    <trip id="moto224" type="moto_motorcycle" depart="336.00" departLane="best" from="-23027119#3" to="555004446#31"/>
    <trip id="moto225" type="moto_motorcycle" depart="337.50" departLane="best" from="722082785#1" to="464696737"/>
    <trip id="moto228" type="moto_motorcycle" depart="342.00" departLane="best" from="49954380" to="-435251975"/>
    <trip id="moto229" type="moto_motorcycle" depart="343.50" departLane="best" from="-472576384" to="-110348714#1"/>
    <trip id="moto230" type="moto_motorcycle" depart="345.00" departLane="best" from="435439424" to="48424808#1"/>
    <trip id="moto234" type="moto_motorcycle" depart="351.00" departLane="best" from="-22891704#1" to="794585384#0"/>
    <trip id="moto235" type="moto_motorcycle" depart="352.50" departLane="best" from="-20640172#1" to="20637218#1"/>
    <trip id="moto236" type="moto_motorcycle" depart="354.00" departLane="best" from="29257759#5" to="19854017#6"/>
    <trip id="moto237" type="moto_motorcycle" depart="355.50" departLane="best" departSpeed="max" from="164758150#0" to="482530518"/>
    <trip id="moto238" type="moto_motorcycle" depart="357.00" departLane="best" from="455264677#1" to="561801704"/>
    <trip id="moto239" type="moto_motorcycle" depart="358.50" departLane="best" from="-28755538#28" to="-812686516#1"/>
</routes>
