<?xml version="1.0" encoding="UTF-8"?>
<!-- generated on 2020-09-03 14:17:50.981914 by randomTrips.py v1_6_0+0003-190709904e
  options: -n C:\Users\epicb\Documents\GitHub\SumoLachineArea\Montreal/montreal.net.xml <doubleminus>seed 42 <doubleminus>fringe-factor 1 -p 1 -e 360 -o C:\Users\epicb\Documents\GitHub\SumoLachineArea\Montreal/Trips/montreal.pedestrian.trips.xml -r C:\Users\epicb\Documents\GitHub\SumoLachineArea\Montreal/Trips/montreal.pedestrian.rou.xml <doubleminus>vehicle-class pedestrian <doubleminus>pedestrians <doubleminus>prefix ped <doubleminus>max-distance 2000 <doubleminus>allow-fringe
-->
<routes xmlns:xsi="http://www.w3.org/2001/XMLSchema-instance" xsi:noNamespaceSchemaLocation="http://sumo.dlr.de/xsd/routes_file.xsd">
    <vType id="ped_pedestrian" vClass="pedestrian"/>
    <person id="ped0" depart="0.00" type="ped_pedestrian">
        <walk from="-453720559#0" to="20902860#1"/>
    </person>
    <person id="ped1" depart="1.00" type="ped_pedestrian">
        <walk from="-329384199#0" to="113746394"/>
    </person>
    <person id="ped2" depart="2.00" type="ped_pedestrian">
        <walk from="164818751#9" to="-452039033"/>
    </person>
    <person id="ped3" depart="3.00" type="ped_pedestrian">
        <walk from="785392923#2" to="258141330#0"/>
    </person>
    <person id="ped4" depart="4.00" type="ped_pedestrian">
        <walk from="208632692" to="537239215#1"/>
    </person>
    <person id="ped5" depart="5.00" type="ped_pedestrian">
        <walk from="-699201226#0" to="699202225#0"/>
    </person>
    <person id="ped6" depart="6.00" type="ped_pedestrian">
        <walk from="474846527" to="-474852884"/>
    </person>
    <person id="ped7" depart="7.00" type="ped_pedestrian">
        <walk from="27205976#0" to="732652167#3"/>
    </person>
    <person id="ped8" depart="8.00" type="ped_pedestrian">
        <walk from="127570936#3" to="24793833#1"/>
    </person>
    <person id="ped9" depart="9.00" type="ped_pedestrian">
        <walk from="-451902774#4" to="-677513822"/>
    </person>
    <person id="ped12" depart="12.00" type="ped_pedestrian">
        <walk from="376479646#2" to="4911698#0"/>
    </person>
    <person id="ped13" depart="13.00" type="ped_pedestrian">
        <walk from="-22894761#2" to="-462064443"/>
    </person>
    <person id="ped14" depart="14.00" type="ped_pedestrian">
        <walk from="171582335#1" to="-480178179#3"/>
    </person>
    <person id="ped15" depart="15.00" type="ped_pedestrian">
        <walk from="-165214767#4" to="-129039677#7"/>
    </person>
    <person id="ped16" depart="16.00" type="ped_pedestrian">
        <walk from="-22915743#0" to="-131828383"/>
    </person>
    <person id="ped17" depart="17.00" type="ped_pedestrian">
        <walk from="-27310981#3" to="-427700272#0"/>
    </person>
    <person id="ped18" depart="18.00" type="ped_pedestrian">
        <walk from="452477552" to="371652319#0"/>
    </person>
    <person id="ped19" depart="19.00" type="ped_pedestrian">
        <walk from="455685930#1" to="184778970#1"/>
    </person>
    <person id="ped20" depart="20.00" type="ped_pedestrian">
        <walk from="-700832394#2" to="-166902178"/>
    </person>
    <person id="ped22" depart="22.00" type="ped_pedestrian">
        <walk from="164974775#8" to="561695925"/>
    </person>
    <person id="ped23" depart="23.00" type="ped_pedestrian">
        <walk from="17289069#14" to="-468672433#2"/>
    </person>
    <person id="ped24" depart="24.00" type="ped_pedestrian">
        <walk from="-11857316#1" to="366278235"/>
    </person>
    <person id="ped25" depart="25.00" type="ped_pedestrian">
        <walk from="608678632#1" to="435267149#1"/>
    </person>
    <person id="ped26" depart="26.00" type="ped_pedestrian">
        <walk from="20221692#4" to="22894534#4"/>
    </person>
    <person id="ped27" depart="27.00" type="ped_pedestrian">
        <walk from="-171673145#0" to="-740263120#5"/>
    </person>
    <person id="ped28" depart="28.00" type="ped_pedestrian">
        <walk from="27208893#1" to="435256349#0"/>
    </person>
    <person id="ped29" depart="29.00" type="ped_pedestrian">
        <walk from="714752390" to="397322130#0"/>
    </person>
    <person id="ped30" depart="30.00" type="ped_pedestrian">
        <walk from="258141326#2" to="16004194#3"/>
    </person>
    <person id="ped31" depart="31.00" type="ped_pedestrian">
        <walk from="479114229#1" to="778568863#0"/>
    </person>
    <person id="ped32" depart="32.00" type="ped_pedestrian">
        <walk from="26414237#2" to="456313039"/>
    </person>
    <person id="ped33" depart="33.00" type="ped_pedestrian">
        <walk from="22892193#0" to="341094913#0"/>
    </person>
    <person id="ped34" depart="34.00" type="ped_pedestrian">
        <walk from="520158434" to="358794693"/>
    </person>
    <person id="ped35" depart="35.00" type="ped_pedestrian">
        <walk from="403870862#0" to="-331254290#0"/>
    </person>
    <person id="ped36" depart="36.00" type="ped_pedestrian">
        <walk from="215564751" to="-48678890#2"/>
    </person>
    <person id="ped37" depart="37.00" type="ped_pedestrian">
        <walk from="-28755558#23" to="152517112#5"/>
    </person>
    <person id="ped38" depart="38.00" type="ped_pedestrian">
        <walk from="157742339#1" to="434673389#1"/>
    </person>
    <person id="ped39" depart="39.00" type="ped_pedestrian">
        <walk from="-251824126#0" to="46618971#2"/>
    </person>
    <person id="ped40" depart="40.00" type="ped_pedestrian">
        <walk from="20176237#0" to="-507342062#1"/>
    </person>
    <person id="ped41" depart="41.00" type="ped_pedestrian">
        <walk from="-433358106#7" to="24575293#10"/>
    </person>
    <person id="ped42" depart="42.00" type="ped_pedestrian">
        <walk from="142846604#3" to="189744416#0"/>
    </person>
    <person id="ped43" depart="43.00" type="ped_pedestrian">
        <walk from="229303081#1" to="-20411158#0"/>
    </person>
    <person id="ped44" depart="44.00" type="ped_pedestrian">
        <walk from="24535420#1" to="24445507#1"/>
    </person>
    <person id="ped45" depart="45.00" type="ped_pedestrian">
        <walk from="-132501395#6" to="263213889#2"/>
    </person>
    <person id="ped46" depart="46.00" type="ped_pedestrian">
        <walk from="729170147#4" to="729170145#0"/>
    </person>
    <person id="ped47" depart="47.00" type="ped_pedestrian">
        <walk from="182821498#3" to="-47471345#0"/>
    </person>
    <person id="ped50" depart="50.00" type="ped_pedestrian">
        <walk from="24851819#1" to="80065746#3"/>
    </person>
    <person id="ped51" depart="51.00" type="ped_pedestrian">
        <walk from="806940723#4" to="361607071"/>
    </person>
    <person id="ped52" depart="52.00" type="ped_pedestrian">
        <walk from="776650739" to="-542829697#1"/>
    </person>
    <person id="ped53" depart="53.00" type="ped_pedestrian">
        <walk from="722563871#0" to="11876777#0"/>
    </person>
    <person id="ped54" depart="54.00" type="ped_pedestrian">
        <walk from="763949959#10" to="-27208206#8"/>
    </person>
    <person id="ped55" depart="55.00" type="ped_pedestrian">
        <walk from="129039842#2" to="208569791#0"/>
    </person>
    <person id="ped56" depart="56.00" type="ped_pedestrian">
        <walk from="-334786310#18" to="21294234#2"/>
    </person>
    <person id="ped57" depart="57.00" type="ped_pedestrian">
        <walk from="366278234" to="105223150#16"/>
    </person>
    <person id="ped58" depart="58.00" type="ped_pedestrian">
        <walk from="-451896528" to="-39959541#0"/>
    </person>
    <person id="ped59" depart="59.00" type="ped_pedestrian">
        <walk from="477891553#1" to="-38340487#3"/>
    </person>
    <person id="ped60" depart="60.00" type="ped_pedestrian">
        <walk from="310997844" to="-311051494"/>
    </person>
    <person id="ped61" depart="61.00" type="ped_pedestrian">
        <walk from="29364998#7" to="-473052060#2"/>
    </person>
    <person id="ped62" depart="62.00" type="ped_pedestrian">
        <walk from="-129039852#3" to="-238525037#28"/>
    </person>
    <person id="ped63" depart="63.00" type="ped_pedestrian">
        <walk from="334858680#1" to="24575901#5"/>
    </person>
    <person id="ped64" depart="64.00" type="ped_pedestrian">
        <walk from="207895730#4" to="23027107#3"/>
    </person>
    <person id="ped65" depart="65.00" type="ped_pedestrian">
        <walk from="-631149071" to="830127734#1"/>
    </person>
    <person id="ped66" depart="66.00" type="ped_pedestrian">
        <walk from="680920858#5" to="453544607#0"/>
    </person>
    <person id="ped67" depart="67.00" type="ped_pedestrian">
        <walk from="452471674#10" to="46699741"/>
    </person>
    <person id="ped68" depart="68.00" type="ped_pedestrian">
        <walk from="-20172521#1" to="4637257#10"/>
    </person>
    <person id="ped69" depart="69.00" type="ped_pedestrian">
        <walk from="-169509213" to="47653154#3"/>
    </person>
    <person id="ped70" depart="70.00" type="ped_pedestrian">
        <walk from="20447053#11" to="453483733"/>
    </person>
    <person id="ped71" depart="71.00" type="ped_pedestrian">
        <walk from="-11196577#4" to="12214701"/>
    </person>
    <person id="ped72" depart="72.00" type="ped_pedestrian">
        <walk from="19910388#2" to="697043041#16"/>
    </person>
    <person id="ped73" depart="73.00" type="ped_pedestrian">
        <walk from="-289901108#5" to="620404424#7"/>
    </person>
    <person id="ped76" depart="76.00" type="ped_pedestrian">
        <walk from="203111932" to="-40336465#0"/>
    </person>
    <person id="ped78" depart="78.00" type="ped_pedestrian">
        <walk from="-276652944" to="343227454#3"/>
    </person>
    <person id="ped79" depart="79.00" type="ped_pedestrian">
        <walk from="-165217895#0" to="-23308089#4"/>
    </person>
    <person id="ped80" depart="80.00" type="ped_pedestrian">
        <walk from="406232059#0" to="-657707241#0"/>
    </person>
    <person id="ped81" depart="81.00" type="ped_pedestrian">
        <walk from="233054870" to="165265060#8"/>
    </person>
    <person id="ped82" depart="82.00" type="ped_pedestrian">
        <walk from="4886365#0" to="-48921999#1"/>
    </person>
    <person id="ped83" depart="83.00" type="ped_pedestrian">
        <walk from="20221039#3" to="463431186#1"/>
    </person>
    <person id="ped84" depart="84.00" type="ped_pedestrian">
        <walk from="-20415446#1" to="-744311530#2"/>
    </person>
    <person id="ped85" depart="85.00" type="ped_pedestrian">
        <walk from="624282124" to="-538617201#2"/>
    </person>
    <person id="ped86" depart="86.00" type="ped_pedestrian">
        <walk from="142847683#2" to="208111986#0"/>
    </person>
    <person id="ped87" depart="87.00" type="ped_pedestrian">
        <walk from="86042345#3" to="474611754"/>
    </person>
    <person id="ped88" depart="88.00" type="ped_pedestrian">
        <walk from="159510745#3" to="20572661#0"/>
    </person>
    <person id="ped89" depart="89.00" type="ped_pedestrian">
        <walk from="440399767#0" to="25899861#23"/>
    </person>
    <person id="ped90" depart="90.00" type="ped_pedestrian">
        <walk from="20681584" to="788200475#2"/>
    </person>
    <person id="ped92" depart="92.00" type="ped_pedestrian">
        <walk from="-702156223#0" to="-462570672"/>
    </person>
    <person id="ped93" depart="93.00" type="ped_pedestrian">
        <walk from="45558431" to="697043036#4"/>
    </person>
    <person id="ped94" depart="94.00" type="ped_pedestrian">
        <walk from="-208569786#0" to="48424036#3"/>
    </person>
    <person id="ped95" depart="95.00" type="ped_pedestrian">
        <walk from="165217833#3" to="65249868#1"/>
    </person>
    <person id="ped96" depart="96.00" type="ped_pedestrian">
        <walk from="-639137280#6" to="-20415454#3"/>
    </person>
    <person id="ped97" depart="97.00" type="ped_pedestrian">
        <walk from="-722563870#23" to="20895757#10"/>
    </person>
    <person id="ped98" depart="98.00" type="ped_pedestrian">
        <walk from="460044487#2" to="37852104#5"/>
    </person>
    <person id="ped99" depart="99.00" type="ped_pedestrian">
        <walk from="480047189" to="-27208443#2"/>
    </person>
    <person id="ped100" depart="100.00" type="ped_pedestrian">
        <walk from="108705318" to="736329520#1"/>
    </person>
    <person id="ped101" depart="101.00" type="ped_pedestrian">
        <walk from="143811364" to="204844063#0"/>
    </person>
    <person id="ped102" depart="102.00" type="ped_pedestrian">
        <walk from="-103521767#0" to="20170314#1"/>
    </person>
    <person id="ped103" depart="103.00" type="ped_pedestrian">
        <walk from="19937692#2" to="272850872"/>
    </person>
    <person id="ped104" depart="104.00" type="ped_pedestrian">
        <walk from="399306775#0" to="-792160916#0"/>
    </person>
    <person id="ped105" depart="105.00" type="ped_pedestrian">
        <walk from="129039692" to="546131910#1"/>
    </person>
    <person id="ped106" depart="106.00" type="ped_pedestrian">
        <walk from="738275189#7" to="-697320070"/>
    </person>
    <person id="ped107" depart="107.00" type="ped_pedestrian">
        <walk from="467218616#4" to="-410971740#2"/>
    </person>
    <person id="ped109" depart="109.00" type="ped_pedestrian">
        <walk from="89533664#2" to="-207720335"/>
    </person>
    <person id="ped110" depart="110.00" type="ped_pedestrian">
        <walk from="19944245#1" to="-20641770#0"/>
    </person>
    <person id="ped111" depart="111.00" type="ped_pedestrian">
        <walk from="-542829695#3" to="22891887#0"/>
    </person>
    <person id="ped112" depart="112.00" type="ped_pedestrian">
        <walk from="-453506264#7" to="-164818751#44"/>
    </person>
    <person id="ped113" depart="113.00" type="ped_pedestrian">
        <walk from="20900523#1" to="453703734#1"/>
    </person>
    <person id="ped114" depart="114.00" type="ped_pedestrian">
        <walk from="152517096#0" to="550006603"/>
    </person>
    <person id="ped115" depart="115.00" type="ped_pedestrian">
        <walk from="-739880854#2" to="-27175962#3"/>
    </person>
    <person id="ped116" depart="116.00" type="ped_pedestrian">
        <walk from="-38340535#1" to="729092400#3"/>
    </person>
    <person id="ped117" depart="117.00" type="ped_pedestrian">
        <walk from="325273888#1" to="545665269#1"/>
    </person>
    <person id="ped118" depart="118.00" type="ped_pedestrian">
        <walk from="-220538973#1" to="220538955#1"/>
    </person>
    <person id="ped119" depart="119.00" type="ped_pedestrian">
        <walk from="19908073#0" to="-329918648#1"/>
    </person>
    <person id="ped120" depart="120.00" type="ped_pedestrian">
        <walk from="-265250999#2" to="430822794#0"/>
    </person>
    <person id="ped121" depart="121.00" type="ped_pedestrian">
        <walk from="141020526#1" to="-164759201#1"/>
    </person>
    <person id="ped122" depart="122.00" type="ped_pedestrian">
        <walk from="-464121413#1" to="205276828#6"/>
    </person>
    <person id="ped123" depart="123.00" type="ped_pedestrian">
        <walk from="455243853" to="467147702#6"/>
    </person>
    <person id="ped124" depart="124.00" type="ped_pedestrian">
        <walk from="-20415454#1" to="655399866#1"/>
    </person>
    <person id="ped125" depart="125.00" type="ped_pedestrian">
        <walk from="22894602#7" to="-449661661#5"/>
    </person>
    <person id="ped126" depart="126.00" type="ped_pedestrian">
        <walk from="-230713646#0" to="-546358723#2"/>
    </person>
    <person id="ped127" depart="127.00" type="ped_pedestrian">
        <walk from="-430418218#1" to="-406232082#0"/>
    </person>
    <person id="ped128" depart="128.00" type="ped_pedestrian">
        <walk from="657739524#1" to="367503000#0"/>
    </person>
    <person id="ped129" depart="129.00" type="ped_pedestrian">
        <walk from="487740494#0" to="-27127139#2"/>
    </person>
    <person id="ped131" depart="131.00" type="ped_pedestrian">
        <walk from="20291851#1" to="-199424079#6"/>
    </person>
    <person id="ped132" depart="132.00" type="ped_pedestrian">
        <walk from="454275952" to="-111471336#4"/>
    </person>
    <person id="ped134" depart="134.00" type="ped_pedestrian">
        <walk from="827050971#16" to="48666283#2"/>
    </person>
    <person id="ped135" depart="135.00" type="ped_pedestrian">
        <walk from="192180463#0" to="453702124"/>
    </person>
    <person id="ped136" depart="136.00" type="ped_pedestrian">
        <walk from="-305873954#0" to="-20912101#1"/>
    </person>
    <person id="ped137" depart="137.00" type="ped_pedestrian">
        <walk from="806947053#2" to="477885644#0"/>
    </person>
    <person id="ped138" depart="138.00" type="ped_pedestrian">
        <walk from="-48432623#0" to="806940751#2"/>
    </person>
    <person id="ped139" depart="139.00" type="ped_pedestrian">
        <walk from="-393828186#8" to="453483739"/>
    </person>
    <person id="ped140" depart="140.00" type="ped_pedestrian">
        <walk from="238525037#10" to="-26569299#1"/>
    </person>
    <person id="ped141" depart="141.00" type="ped_pedestrian">
        <walk from="132217961#0" to="-20186983#0"/>
    </person>
    <person id="ped142" depart="142.00" type="ped_pedestrian">
        <walk from="-164827366" to="806924906"/>
    </person>
    <person id="ped143" depart="143.00" type="ped_pedestrian">
        <walk from="-27342418" to="31016085"/>
    </person>
    <person id="ped144" depart="144.00" type="ped_pedestrian">
        <walk from="113558908#3" to="165265059#1"/>
    </person>
    <person id="ped145" depart="145.00" type="ped_pedestrian">
        <walk from="-366193188#3" to="160093871#3"/>
    </person>
    <person id="ped146" depart="146.00" type="ped_pedestrian">
        <walk from="-47971522#1" to="-244878054#0"/>
    </person>
    <person id="ped147" depart="147.00" type="ped_pedestrian">
        <walk from="24457407#1" to="34718082#2"/>
    </person>
    <person id="ped149" depart="149.00" type="ped_pedestrian">
        <walk from="639138542" to="-409066549#1"/>
    </person>
    <person id="ped150" depart="150.00" type="ped_pedestrian">
        <walk from="-199317476#4" to="435834105#1"/>
    </person>
    <person id="ped151" depart="151.00" type="ped_pedestrian">
        <walk from="467147701#4" to="-21306280#0"/>
    </person>
    <person id="ped152" depart="152.00" type="ped_pedestrian">
        <walk from="20202893#14" to="-161394592#0"/>
    </person>
    <person id="ped153" depart="153.00" type="ped_pedestrian">
        <walk from="329694548#5" to="546047308#3"/>
    </person>
    <person id="ped154" depart="154.00" type="ped_pedestrian">
        <walk from="687246557" to="57754462#3"/>
    </person>
    <person id="ped157" depart="157.00" type="ped_pedestrian">
        <walk from="-346595860" to="225598801#8"/>
    </person>
    <person id="ped158" depart="158.00" type="ped_pedestrian">
        <walk from="-427701162#6" to="22909931#8"/>
    </person>
    <person id="ped159" depart="159.00" type="ped_pedestrian">
        <walk from="806940708" to="36606095#4"/>
    </person>
    <person id="ped160" depart="160.00" type="ped_pedestrian">
        <walk from="177235878" to="455054983#0"/>
    </person>
    <person id="ped161" depart="161.00" type="ped_pedestrian">
        <walk from="248037423#2" to="-25365310#1"/>
    </person>
    <person id="ped162" depart="162.00" type="ped_pedestrian">
        <walk from="-599487507#2" to="20216720"/>
    </person>
    <person id="ped163" depart="163.00" type="ped_pedestrian">
        <walk from="100923764#9" to="-459998882"/>
    </person>
    <person id="ped164" depart="164.00" type="ped_pedestrian">
        <walk from="546047309#4" to="38911502"/>
    </person>
    <person id="ped165" depart="165.00" type="ped_pedestrian">
        <walk from="182804514#0" to="-182918698#3"/>
    </person>
    <person id="ped166" depart="166.00" type="ped_pedestrian">
        <walk from="-47468265" to="467136412#1"/>
    </person>
    <person id="ped167" depart="167.00" type="ped_pedestrian">
        <walk from="806924901#2" to="466649242#2"/>
    </person>
    <person id="ped168" depart="168.00" type="ped_pedestrian">
        <walk from="656674939#1" to="436370418"/>
    </person>
    <person id="ped169" depart="169.00" type="ped_pedestrian">
        <walk from="491602099#2" to="-22566317#1"/>
    </person>
    <person id="ped171" depart="171.00" type="ped_pedestrian">
        <walk from="-112840726#3" to="542827870#2"/>
    </person>
    <person id="ped172" depart="172.00" type="ped_pedestrian">
        <walk from="-317680489" to="230337577"/>
    </person>
    <person id="ped173" depart="173.00" type="ped_pedestrian">
        <walk from="114822188#1" to="113558908#2"/>
    </person>
    <person id="ped174" depart="174.00" type="ped_pedestrian">
        <walk from="-349676960#0" to="-129586941#2"/>
    </person>
    <person id="ped175" depart="175.00" type="ped_pedestrian">
        <walk from="-412073081#5" to="-492797431"/>
    </person>
    <person id="ped176" depart="176.00" type="ped_pedestrian">
        <walk from="453692660#3" to="-129039734"/>
    </person>
    <person id="ped177" depart="177.00" type="ped_pedestrian">
        <walk from="-11872574#1" to="455081617"/>
    </person>
    <person id="ped178" depart="178.00" type="ped_pedestrian">
        <walk from="-689693033#11" to="-41590776#6"/>
    </person>
    <person id="ped179" depart="179.00" type="ped_pedestrian">
        <walk from="205276828#16" to="20216943#7"/>
    </person>
    <person id="ped180" depart="180.00" type="ped_pedestrian">
        <walk from="-289901095#1" to="220538980#4"/>
    </person>
    <person id="ped181" depart="181.00" type="ped_pedestrian">
        <walk from="45795930#5" to="791952998#1"/>
    </person>
    <person id="ped182" depart="182.00" type="ped_pedestrian">
        <walk from="19896202#0" to="704194092#1"/>
    </person>
    <person id="ped183" depart="183.00" type="ped_pedestrian">
        <walk from="-480178172" to="-13537922#3"/>
    </person>
    <person id="ped184" depart="184.00" type="ped_pedestrian">
        <walk from="452695797" to="22894972#0"/>
    </person>
    <person id="ped185" depart="185.00" type="ped_pedestrian">
        <walk from="-164972317#4" to="205131221"/>
    </person>
    <person id="ped186" depart="186.00" type="ped_pedestrian">
        <walk from="657440595#0" to="-22781157#1"/>
    </person>
    <person id="ped187" depart="187.00" type="ped_pedestrian">
        <walk from="-561273495" to="481036611"/>
    </person>
    <person id="ped188" depart="188.00" type="ped_pedestrian">
        <walk from="-22894528#2" to="-463875427"/>
    </person>
    <person id="ped189" depart="189.00" type="ped_pedestrian">
        <walk from="225185105#0" to="767884561#1"/>
    </person>
    <person id="ped190" depart="190.00" type="ped_pedestrian">
        <walk from="11037421#1" to="-624282126"/>
    </person>
    <person id="ped191" depart="191.00" type="ped_pedestrian">
        <walk from="-27372258" to="544318657#1"/>
    </person>
    <person id="ped192" depart="192.00" type="ped_pedestrian">
        <walk from="745349726#3" to="-471708901"/>
    </person>
    <person id="ped193" depart="193.00" type="ped_pedestrian">
        <walk from="22909926" to="101122496#0"/>
    </person>
    <person id="ped194" depart="194.00" type="ped_pedestrian">
        <walk from="-208638113#6" to="-208635562#1"/>
    </person>
    <person id="ped195" depart="195.00" type="ped_pedestrian">
        <walk from="-208420928#0" to="265251009"/>
    </person>
    <person id="ped196" depart="196.00" type="ped_pedestrian">
        <walk from="-677513830" to="78089336#1"/>
    </person>
    <person id="ped197" depart="197.00" type="ped_pedestrian">
        <walk from="275888761#2" to="749845056#5"/>
    </person>
    <person id="ped198" depart="198.00" type="ped_pedestrian">
        <walk from="-167285286#3" to="-700832405"/>
    </person>
    <person id="ped199" depart="199.00" type="ped_pedestrian">
        <walk from="-546385109#3" to="776650732#0"/>
    </person>
    <person id="ped200" depart="200.00" type="ped_pedestrian">
        <walk from="798781895" to="-109909593"/>
    </person>
    <person id="ped201" depart="201.00" type="ped_pedestrian">
        <walk from="-542995793" to="-20412246#4"/>
    </person>
    <person id="ped202" depart="202.00" type="ped_pedestrian">
        <walk from="442193559#2" to="442193560#1"/>
    </person>
    <person id="ped203" depart="203.00" type="ped_pedestrian">
        <walk from="142987613#2" to="24424444#1"/>
    </person>
    <person id="ped204" depart="204.00" type="ped_pedestrian">
        <walk from="311420894#2" to="-543103817#2"/>
    </person>
    <person id="ped205" depart="205.00" type="ped_pedestrian">
        <walk from="111771071#2" to="151554221#3"/>
    </person>
    <person id="ped206" depart="206.00" type="ped_pedestrian">
        <walk from="-20202902#0" to="-598964318#5"/>
    </person>
    <person id="ped207" depart="207.00" type="ped_pedestrian">
        <walk from="-553534222#1" to="234791402#2"/>
    </person>
    <person id="ped208" depart="208.00" type="ped_pedestrian">
        <walk from="598678916#2" to="-22894761#4"/>
    </person>
    <person id="ped209" depart="209.00" type="ped_pedestrian">
        <walk from="599487506#4" to="346776712"/>
    </person>
    <person id="ped210" depart="210.00" type="ped_pedestrian">
        <walk from="229303070#1" to="257003485"/>
    </person>
    <person id="ped211" depart="211.00" type="ped_pedestrian">
        <walk from="453940694" to="-19944766#7"/>
    </person>
    <person id="ped212" depart="212.00" type="ped_pedestrian">
        <walk from="-435756191#3" to="89908820#4"/>
    </person>
    <person id="ped213" depart="213.00" type="ped_pedestrian">
        <walk from="164759174#4" to="480923593"/>
    </person>
    <person id="ped214" depart="214.00" type="ped_pedestrian">
        <walk from="453475204" to="384592439#0"/>
    </person>
    <person id="ped215" depart="215.00" type="ped_pedestrian">
        <walk from="258134835" to="20641120#3"/>
    </person>
    <person id="ped216" depart="216.00" type="ped_pedestrian">
        <walk from="196943398#6" to="-677513816#5"/>
    </person>
    <person id="ped217" depart="217.00" type="ped_pedestrian">
        <walk from="-762866399" to="-32817622#4"/>
    </person>
    <person id="ped218" depart="218.00" type="ped_pedestrian">
        <walk from="-333428742#0" to="20226901#0"/>
    </person>
    <person id="ped219" depart="219.00" type="ped_pedestrian">
        <walk from="-66310336" to="311015491"/>
    </person>
    <person id="ped220" depart="220.00" type="ped_pedestrian">
        <walk from="29270923#7" to="-422668952#7"/>
    </person>
    <person id="ped221" depart="221.00" type="ped_pedestrian">
        <walk from="-42902411#4" to="317699679#5"/>
    </person>
    <person id="ped222" depart="222.00" type="ped_pedestrian">
        <walk from="38911505" to="806940769#0"/>
    </person>
    <person id="ped223" depart="223.00" type="ped_pedestrian">
        <walk from="-48424818#4" to="164826456#6"/>
    </person>
    <person id="ped224" depart="224.00" type="ped_pedestrian">
        <walk from="304313548#2" to="655270018#0"/>
    </person>
    <person id="ped225" depart="225.00" type="ped_pedestrian">
        <walk from="-22909983#1" to="235378192#0"/>
    </person>
    <person id="ped227" depart="227.00" type="ped_pedestrian">
        <walk from="20296279#0" to="20291845#15"/>
    </person>
    <person id="ped228" depart="228.00" type="ped_pedestrian">
        <walk from="-794585385#10" to="-166474072#2"/>
    </person>
    <person id="ped229" depart="229.00" type="ped_pedestrian">
        <walk from="111778600#5" to="-22892183#1"/>
    </person>
    <person id="ped230" depart="230.00" type="ped_pedestrian">
        <walk from="257476738#0" to="46686763#2"/>
    </person>
    <person id="ped231" depart="231.00" type="ped_pedestrian">
        <walk from="459564234#0" to="452636492"/>
    </person>
    <person id="ped232" depart="232.00" type="ped_pedestrian">
        <walk from="806924902#0" to="-165325651#5"/>
    </person>
    <person id="ped233" depart="233.00" type="ped_pedestrian">
        <walk from="410121017#0" to="-20412773#0"/>
    </person>
    <person id="ped234" depart="234.00" type="ped_pedestrian">
        <walk from="792370828#2" to="334786305#8"/>
    </person>
    <person id="ped235" depart="235.00" type="ped_pedestrian">
        <walk from="113746399#1" to="-346914724"/>
    </person>
    <person id="ped236" depart="236.00" type="ped_pedestrian">
        <walk from="721305740" to="738275187#1"/>
    </person>
    <person id="ped237" depart="237.00" type="ped_pedestrian">
        <walk from="164759178#1" to="-216699064#1"/>
    </person>
    <person id="ped238" depart="238.00" type="ped_pedestrian">
        <walk from="-20934037#0" to="-21294254"/>
    </person>
    <person id="ped239" depart="239.00" type="ped_pedestrian">
        <walk from="492407448" to="86565469#1"/>
    </person>
    <person id="ped240" depart="240.00" type="ped_pedestrian">
        <walk from="199361850" to="-451864531#1"/>
    </person>
    <person id="ped241" depart="241.00" type="ped_pedestrian">
        <walk from="-468678439#3" to="749845023#6"/>
    </person>
    <person id="ped243" depart="243.00" type="ped_pedestrian">
        <walk from="-22891962#1" to="22894166"/>
    </person>
    <person id="ped244" depart="244.00" type="ped_pedestrian">
        <walk from="-399320068#1" to="725232033#2"/>
    </person>
    <person id="ped245" depart="245.00" type="ped_pedestrian">
        <walk from="110166555" to="22915977#2"/>
    </person>
    <person id="ped246" depart="246.00" type="ped_pedestrian">
        <walk from="-438542885" to="-192586993"/>
    </person>