<?xml version="1.0" encoding="UTF-8"?>

<!-- generated on 09/03/20 14:26:59 by Eclipse SUMO duarouter Version 1.6.0
<configuration xmlns:xsi="http://www.w3.org/2001/XMLSchema-instance" xsi:noNamespaceSchemaLocation="http://sumo.dlr.de/xsd/duarouterConfiguration.xsd">

    <input>
        <net-file value="C:\Users\epicb\Documents\GitHub\SumoLachineArea\Montreal/montreal.net.xml"/>
        <route-files value="C:\Users\epicb\Documents\GitHub\SumoLachineArea\Montreal/Trips/montreal.bus.trips.xml"/>
    </input>

    <output>
        <output-file value="C:\Users\epicb\Documents\GitHub\SumoLachineArea\Montreal/Trips/montreal.bus.trips.xml.tmp"/>
        <write-trips value="true"/>
    </output>

    <time>
        <begin value="0"/>
        <end value="360.0"/>
    </time>

    <report>
        <no-warnings value="true"/>
        <ignore-errors value="true"/>
        <no-step-log value="true"/>
    </report>

</configuration>
-->

<routes xmlns:xsi="http://www.w3.org/2001/XMLSchema-instance" xsi:noNamespaceSchemaLocation="http://sumo.dlr.de/xsd/routes_file.xsd">
    <vType id="bus_bus" vClass="bus"/>
    <trip id="bus0" type="bus_bus" depart="0.00" departLane="best" from="26987251#1" to="-138872551#0"/>
    <trip id="bus1" type="bus_bus" depart="2.00" departLane="best" from="-460561592#1" to="-415609092#19"/>
    <trip id="bus2" type="bus_bus" depart="4.00" departLane="best" from="415609092#22" to="329066846#0"/>
    <trip id="bus3" type="bus_bus" depart="6.00" departLane="best" from="47470847#0" to="-20641120#5"/>
    <trip id="bus4" type="bus_bus" depart="8.00" departLane="best" from="164610225#2" to="-16423159#0"/>
    <trip id="bus5" type="bus_bus" depart="10.00" departLane="best" from="-38151423" to="20447452#1"/>
    <trip id="bus6" type="bus_bus" depart="12.00" departLane="best" from="-152517064#0" to="-342137679#1"/>
    <trip id="bus7" type="bus_bus" depart="14.00" departLane="best" from="27217390#0" to="222088688#1"/>
    <trip id="bus8" type="bus_bus" depart="16.00" departLane="best" from="-38742080#9" to="22915853#3"/>
    <trip id="bus9" type="bus_bus" depart="18.00" departLane="best" from="455688756#3" to="-110479584#0"/>
    <trip id="bus10" type="bus_bus" depart="20.00" departLane="best" from="455264731#1" to="363464830#6"/>
    <trip id="bus11" type="bus_bus" depart="22.00" departLane="best" from="-5029507#0" to="-25757173"/>
    <trip id="bus12" type="bus_bus" depart="24.00" departLane="best" from="57753769#1" to="-553415676#1"/>
    <trip id="bus13" type="bus_bus" depart="26.00" departLane="best" from="-20868857#3" to="-20945069#1"/>
    <trip id="bus14" type="bus_bus" depart="28.00" departLane="best" from="464068203#1" to="24360301#1"/>
    <trip id="bus15" type="bus_bus" depart="30.00" departLane="best" from="455463868#4" to="41230312#2"/>
    <trip id="bus16" type="bus_bus" depart="32.00" departLane="best" from="20934517#0" to="68254908#0"/>
    <trip id="bus17" type="bus_bus" depart="34.00" departLane="best" from="10801441#2" to="22775270#0"/>
    <trip id="bus18" type="bus_bus" depart="36.00" departLane="best" from="460708599" to="25915589#0"/>
    <trip id="bus19" type="bus_bus" depart="38.00" departLane="best" from="466406353#1" to="22909943#0"/>
    <trip id="bus20" type="bus_bus" depart="40.00" departLane="best" from="366840862#21" to="-165087297#1"/>
    <trip id="bus21" type="bus_bus" depart="42.00" departLane="best" from="-40602771#0" to="-46678251#6"/>
    <trip id="bus22" type="bus_bus" depart="44.00" departLane="best" from="-20414661#4" to="-437675555"/>
    <trip id="bus23" type="bus_bus" depart="46.00" departLane="best" from="-21256143#1" to="-464091831"/>
    <trip id="bus24" type="bus_bus" depart="48.00" departLane="best" from="26719681#1" to="106550682#0"/>
    <trip id="bus25" type="bus_bus" depart="50.00" departLane="best" from="-812688636#6" to="-374137277#2"/>
    <trip id="bus26" type="bus_bus" depart="52.00" departLane="best" from="-45572855#3" to="52948944#11"/>
    <trip id="bus27" type="bus_bus" depart="54.00" departLane="best" from="27208582#3" to="25166457#1"/>
    <trip id="bus28" type="bus_bus" depart="56.00" departLane="best" from="-26902080#1" to="411198619#1"/>
    <trip id="bus29" type="bus_bus" depart="58.00" departLane="best" from="-26083341#2" to="11394676#0"/>
    <trip id="bus30" type="bus_bus" depart="60.00" departLane="best" from="794887881#0" to="27208082#15"/>
    <trip id="bus31" type="bus_bus" depart="62.00" departLane="best" from="22566311#4" to="339976283#3"/>
    <trip id="bus32" type="bus_bus" depart="64.00" departLane="best" from="463676555#11" to="453483722"/>
    <trip id="bus33" type="bus_bus" depart="66.00" departLane="best" from="-408872860#3" to="-164758156#3"/>
    <trip id="bus34" type="bus_bus" depart="68.00" departLane="best" from="-47467042#1" to="-461163007#1"/>
    <trip id="bus35" type="bus_bus" depart="70.00" departLane="best" from="-354381084#3" to="546337239#0"/>
    <trip id="bus36" type="bus_bus" depart="72.00" departLane="best" from="46699730#0" to="-47495794#0"/>
    <trip id="bus37" type="bus_bus" depart="74.00" departLane="best" from="274693150#5" to="131252259#0"/>
    <trip id="bus38" type="bus_bus" depart="76.00" departLane="best" from="480214787#0" to="197369125#0"/>
    <trip id="bus39" type="bus_bus" depart="78.00" departLane="best" departSpeed="max" from="-45570362" to="-453750355#0"/>
    <trip id="bus40" type="bus_bus" depart="80.00" departLane="best" departSpeed="max" from="22774446#0" to="-459518152#4"/>
    <trip id="bus41" type="bus_bus" depart="82.00" departLane="best" from="22909381#1" to="47500632#2"/>
    <trip id="bus42" type="bus_bus" depart="84.00" departLane="best" from="12203289#2" to="-40312427#2"/>
    <trip id="bus43" type="bus_bus" depart="86.00" departLane="best" from="87370323#11" to="20565281#1"/>
    <trip id="bus44" type="bus_bus" depart="88.00" departLane="best" from="-20711624#1" to="-165120286"/>
    <trip id="bus45" type="bus_bus" depart="90.00" departLane="best" from="-21914318#8" to="26663239#3"/>
    <trip id="bus46" type="bus_bus" depart="92.00" departLane="best" from="453769311#1" to="164831294#1"/>
    <trip id="bus47" type="bus_bus" depart="94.00" departLane="best" departSpeed="max" from="-19936419#1" to="11584385#1"/>
    <trip id="bus48" type="bus_bus" depart="96.00" departLane="best" from="8290407#0" to="21001463#5"/>
    <trip id="bus49" type="bus_bus" depart="98.00" departLane="best" from="679446418" to="46678063#2"/>
    <trip id="bus50" type="bus_bus" depart="100.00" departLane="best" from="-11310919#0" to="396983240#0"/>
    <trip id="bus51" type="bus_bus" depart="102.00" departLane="best" from="329067231#0" to="217912689#2"/>
    <trip id="bus52" type="bus_bus" depart="104.00" departLane="best" from="-45572852#0" to="27208214"/>
    <trip id="bus53" type="bus_bus" depart="106.00" departLane="best" from="-22566038#0" to="165087297#3"/>
    <trip id="bus54" type="bus_bus" depart="108.00" departLane="best" from="165325649#0" to="562434723#1"/>
    <trip id="bus55" type="bus_bus" depart="110.00" departLane="best" from="466899095#0" to="-459825814#0"/>
    <trip id="bus56" type="bus_bus" depart="112.00" departLane="best" from="20296266#1" to="-27650532#1"/>
    <trip id="bus57" type="bus_bus" depart="114.00" departLane="best" from="47919106#3" to="46688836"/>
    <trip id="bus58" type="bus_bus" depart="116.00" departLane="best" from="-46678109" to="27206184#0"/>
    <trip id="bus59" type="bus_bus" depart="118.00" departLane="best" departSpeed="max" from="23946213" to="-25379708#3"/>
    <trip id="bus60" type="bus_bus" depart="120.00" departLane="best" from="451899055#3" to="21843375#5"/>
    <trip id="bus61" type="bus_bus" depart="122.00" departLane="best" from="453460067#1" to="21027512#3"/>
    <trip id="bus62" type="bus_bus" depart="124.00" departLane="best" from="-103935602#0" to="-48432533#1"/>
    <trip id="bus63" type="bus_bus" depart="126.00" departLane="best" from="-125233791#1" to="4952333#1"/>
    <trip id="bus64" type="bus_bus" depart="128.00" departLane="best" from="467936382#4" to="461365078"/>
    <trip id="bus65" type="bus_bus" depart="130.00" departLane="best" from="-46689108" to="-185696180#1"/>
    <trip id="bus66" type="bus_bus" depart="132.00" departLane="best" departSpeed="max" from="467438986#0" to="555505985#3"/>
    <trip id="bus67" type="bus_bus" depart="134.00" departLane="best" departSpeed="max" from="-20569503#1" to="20226178#2"/>
    <trip id="bus68" type="bus_bus" depart="136.00" departLane="best" from="-20186999#5" to="452017877#0"/>
    <trip id="bus69" type="bus_bus" depart="138.00" departLane="best" from="452063702#0" to="-22894972#2"/>
    <trip id="bus70" type="bus_bus" depart="140.00" departLane="best" departSpeed="max" from="199105836" to="22770750#4"/>
    <trip id="bus71" type="bus_bus" depart="142.00" departLane="best" from="-45570988#1" to="46689043#2"/>
    <trip id="bus72" type="bus_bus" depart="144.00" departLane="best" departSpeed="max" from="164615372#0" to="-38651785#0"/>
    <trip id="bus73" type="bus_bus" depart="146.00" departLane="best" from="21019647#17" to="41230314#7"/>
    <trip id="bus74" type="bus_bus" depart="148.00" departLane="best" from="-328753815" to="-47471336#0"/>
    <trip id="bus75" type="bus_bus" depart="150.00" departLane="best" from="825946649#2" to="27459384#6"/>
    <trip id="bus76" type="bus_bus" depart="152.00" departLane="best" from="164954750#8" to="20707069#1"/>
    <trip id="bus77" type="bus_bus" depart="154.00" departLane="best" from="-22818352#0" to="-422668951#0"/>
    <trip id="bus78" type="bus_bus" depart="156.00" departLane="best" from="-4889406#2" to="22915741#3"/>
    <trip id="bus79" type="bus_bus" depart="158.00" departLane="best" from="-412835308#1" to="-404115894#3"/>
    <trip id="bus80" type="bus_bus" depart="160.00" departLane="best" from="-20202900#0" to="26914399#6"/>
    <trip id="bus81" type="bus_bus" depart="162.00" departLane="best" departSpeed="max" from="-408869215#1" to="476130449#1"/>
    <trip id="bus82" type="bus_bus" depart="164.00" departLane="best" from="46620332#0" to="-20219138#2"/>
    <trip id="bus83" type="bus_bus" depart="166.00" departLane="best" departSpeed="max" from="-435110549" to="320722717#12"/>
    <trip id="bus84" type="bus_bus" depart="168.00" departLane="best" from="-363565871#0" to="-22910417#3"/>
    <trip id="bus85" type="bus_bus" depart="170.00" departLane="best" from="51541224" to="22894775#1"/>
    <trip id="bus86" type="bus_bus" depart="172.00" departLane="best" from="198868785" to="453704196#0"/>
    <trip id="bus87" type="bus_bus" depart="174.00" departLane="best" from="455492073#1" to="-32799208#14"/>
    <trip id="bus88" type="bus_bus" depart="176.00" departLane="best" from="-20917871#1" to="165059041#4"/>
    <trip id="bus89" type="bus_bus" depart="178.00" departLane="best" from="164758138#1" to="19937698#5"/>
    <trip id="bus90" type="bus_bus" depart="180.00" departLane="best" departSpeed="max" from="40312429" to="32799263#0"/>
    <trip id="bus91" type="bus_bus" depart="182.00" departLane="best" from="741889017" to="-21166126#15"/>
    <trip id="bus92" type="bus_bus" depart="184.00" departLane="best" from="12716215#0" to="-561260819#0"/>
    <trip id="bus93" type="bus_bus" depart="186.00" departLane="best" from="466406351" to="-454228587"/>
    <trip id="bus94" type="bus_bus" depart="188.00" departLane="best" from="-29366374#3" to="177235883"/>
    <trip id="bus95" type="bus_bus" depart="190.00" departLane="best" from="164258580#8" to="-464121409#0"/>
    <trip id="bus96" type="bus_bus" depart="192.00" departLane="best" from="-453242443" to="48621909#3"/>
    <trip id="bus97" type="bus_bus" depart="194.00" departLane="best" from="165073243#6" to="46678080#1"/>
    <trip id="bus98" type="bus_bus" depart="196.00" departLane="best" from="21889620#2" to="-16663271#4"/>
    <trip id="bus99" type="bus_bus" depart="198.00" departLane="best" from="94047296" to="462766324"/>
    <trip id="bus100" type="bus_bus" depart="200.00" departLane="best" from="656026964" to="4889437#0"/>
    <trip id="bus101" type="bus_bus" depart="202.00" departLane="best" from="464097864" to="-26929472#3"/>
    <trip id="bus102" type="bus_bus" depart="204.00" departLane="best" from="20176230#1" to="-38911509#4"/>
    <trip id="bus103" type="bus_bus" depart="206.00" departLane="best" from="12514169#32" to="-187887633#4"/>
    <trip id="bus104" type="bus_bus" depart="208.00" departLane="best" from="108258042" to="75608018"/>
    <trip id="bus105" type="bus_bus" depart="210.00" departLane="best" from="-45571016#0" to="453688070"/>
    <trip id="bus106" type="bus_bus" depart="212.00" departLane="best" from="167252479#2" to="164831918#2"/>
    <trip id="bus107" type="bus_bus" depart="214.00" departLane="best" from="57754462#0" to="827050971#8"/>
    <trip id="bus108" type="bus_bus" depart="216.00" departLane="best" departSpeed="max" from="22298444#0" to="393872824#1"/>
    <trip id="bus109" type="bus_bus" depart="218.00" departLane="best" from="-25162965#2" to="-46689023"/>
    <trip id="bus110" type="bus_bus" depart="220.00" departLane="best" from="649197162" to="22910171#1"/>
    <trip id="bus111" type="bus_bus" depart="222.00" departLane="best" from="21166126#24" to="436235134#3"/>
    <trip id="bus112" type="bus_bus" depart="224.00" departLane="best" from="-184514710#1" to="22910809#1"/>
    <trip id="bus113" type="bus_bus" depart="226.00" departLane="best" from="20319595#0" to="465368631"/>
    <trip id="bus114" type="bus_bus" depart="228.00" departLane="best" from="-25379176#13" to="598964318#4"/>
    <trip id="bus115" type="bus_bus" depart="230.00" departLane="best" from="-20414681#1" to="-31016069"/>
    <trip id="bus116" type="bus_bus" depart="232.00" departLane="best" from="22911193" to="32799624#1"/>
    <trip id="bus117" type="bus_bus" depart="234.00" departLane="best" from="-42848384#4" to="-22891481#4"/>
    <trip id="bus118" type="bus_bus" depart="236.00" departLane="best" from="47468073" to="-453733909#5"/>
    <trip id="bus119" type="bus_bus" depart="238.00" departLane="best" from="22911172#1" to="25916621#0"/>
    <trip id="bus120" type="bus_bus" depart="240.00" departLane="best" from="16003344" to="22910786#0"/>
    <trip id="bus121" type="bus_bus" depart="242.00" departLane="best" from="20574073#1" to="519275097#1"/>
    <trip id="bus122" type="bus_bus" depart="244.00" departLane="best" from="-334786310#19" to="393698267#1"/>
    <trip id="bus123" type="bus_bus" depart="246.00" departLane="best" departSpeed="max" from="-435433084" to="131252263#18"/>
    <trip id="bus124" type="bus_bus" depart="248.00" departLane="best" from="311420917#4" to="-470059892"/>
    <trip id="bus125" type="bus_bus" depart="250.00" departLane="best" from="-47467095" to="436539041"/>
    <trip id="bus126" type="bus_bus" depart="252.00" departLane="best" from="-20221697#0" to="194417066#2"/>
    <trip id="bus127" type="bus_bus" depart="254.00" departLane="best" from="92352267#3" to="832706762#12"/>
    <trip id="bus128" type="bus_bus" depart="256.00" departLane="best" from="-20228751#6" to="-38742503#3"/>
    <trip id="bus129" type="bus_bus" depart="258.00" departLane="best" from="-45571016#0" to="514055838#1"/>
    <trip id="bus130" type="bus_bus" depart="260.00" departLane="best" from="471490129#1" to="471492589#3"/>
    <trip id="bus131" type="bus_bus" depart="262.00" departLane="best" from="-810813980#4" to="-26022501#4"/>
    <trip id="bus132" type="bus_bus" depart="264.00" departLane="best" from="461358560" to="37182031#0"/>
    <trip id="bus133" type="bus_bus" depart="266.00" departLane="best" from="24457407#11" to="783084332"/>
    <trip id="bus134" type="bus_bus" depart="268.00" departLane="best" from="27419428#7" to="-110703293#3"/>
    <trip id="bus135" type="bus_bus" depart="270.00" departLane="best" from="456383138" to="-46765991#2"/>
    <trip id="bus136" type="bus_bus" depart="272.00" departLane="best" from="29294789#1" to="538751569#0"/>
    <trip id="bus137" type="bus_bus" depart="274.00" departLane="best" from="-22910171#0" to="-22781448"/>
    <trip id="bus138" type="bus_bus" depart="276.00" departLane="best" from="-21849233#5" to="22781159#2"/>
    <trip id="bus139" type="bus_bus" depart="278.00" departLane="best" from="-459386844#2" to="246872471#0"/>
    <trip id="bus140" type="bus_bus" depart="280.00" departLane="best" from="38986541#0" to="-354643611#1"/>
    <trip id="bus141" type="bus_bus" depart="282.00" departLane="best" from="26663353#3" to="-460020844#1"/>
    <trip id="bus142" type="bus_bus" depart="284.00" departLane="best" departSpeed="max" from="20191935#0" to="47608988"/>
    <trip id="bus143" type="bus_bus" depart="286.00" departLane="best" from="463886937" to="-20904813#0"/>
    <trip id="bus144" type="bus_bus" depart="288.00" departLane="best" from="164758138#1" to="-463886941"/>
    <trip id="bus145" type="bus_bus" depart="290.00" departLane="best" from="-110166177#1" to="453012232#1"/>
    <trip id="bus146" type="bus_bus" depart="292.00" departLane="best" from="26914393#10" to="-45844985#1"/>
    <trip id="bus147" type="bus_bus" depart="294.00" departLane="best" from="42742804#3" to="22774976#2"/>
    <trip id="bus148" type="bus_bus" depart="296.00" departLane="best" from="164822384" to="-111614532#3"/>
    <trip id="bus149" type="bus_bus" depart="298.00" departLane="best" from="-20299117#2" to="47326658#2"/>
    <trip id="bus150" type="bus_bus" depart="300.00" departLane="best" from="47564388#0" to="222715405#0"/>
    <trip id="bus151" type="bus_bus" depart="302.00" departLane="best" from="461377676" to="22910733#6"/>
    <trip id="bus152" type="bus_bus" depart="304.00" departLane="best" from="-237298385#10" to="-22894876#0"/>
    <trip id="bus153" type="bus_bus" depart="306.00" departLane="best" from="-46699729#8" to="475097852"/>
    <trip id="bus154" type="bus_bus" depart="308.00" departLane="best" from="454189810#1" to="46678063#0"/>
    <trip id="bus155" type="bus_bus" depart="310.00" departLane="best" from="474838163#2" to="-37641504#9"/>
    <trip id="bus156" type="bus_bus" depart="312.00" departLane="best" from="-452695798#5" to="-21817395#9"/>
    <trip id="bus157" type="bus_bus" depart="314.00" departLane="best" from="453485940#0" to="473798177#1"/>
    <trip id="bus158" type="bus_bus" depart="316.00" departLane="best" from="130763741" to="26120288#1"/>
    <trip id="bus159" type="bus_bus" depart="318.00" departLane="best" departSpeed="max" from="-25161960" to="49742083#0"/>
    <trip id="bus160" type="bus_bus" depart="320.00" departLane="best" from="46678215#2" to="695763683#0"/>
    <trip id="bus161" type="bus_bus" depart="322.00" departLane="best" departSpeed="max" from="45570318#0" to="472392051"/>
    <trip id="bus163" type="bus_bus" depart="326.00" departLane="best" from="-480178179#2" to="500816616#1"/>
    <trip id="bus164" type="bus_bus" depart="328.00" departLane="best" from="455081618" to="46679984#0"/>
    <trip id="bus165" type="bus_bus" depart="330.00" departLane="best" from="45570314" to="-460937152"/>
    <trip id="bus166" type="bus_bus" depart="332.00" departLane="best" from="453695847#0" to="-22082640#0"/>
    <trip id="bus167" type="bus_bus" depart="334.00" departLane="best" from="46686997" to="46620411"/>
    <trip id="bus168" type="bus_bus" depart="336.00" departLane="best" from="-393696913#1" to="457933977#2"/>
    <trip id="bus169" type="bus_bus" depart="338.00" departLane="best" from="182099138#10" to="-47467075"/>
    <trip id="bus170" type="bus_bus" depart="340.00" departLane="best" from="454008471#0" to="-42903211#0"/>
    <trip id="bus171" type="bus_bus" depart="342.00" departLane="best" from="-129895362" to="-32817577#1"/>
    <trip id="bus172" type="bus_bus" depart="344.00" departLane="best" from="-476017090" to="46680009#0"/>
    <trip id="bus173" type="bus_bus" depart="346.00" departLane="best" from="634755016" to="-464684035"/>
    <trip id="bus174" type="bus_bus" depart="348.00" departLane="best" from="27127146#2" to="14059910#16"/>
    <trip id="bus175" type="bus_bus" depart="350.00" departLane="best" from="727307416#0" to="21572666#1"/>
    <trip id="bus176" type="bus_bus" depart="352.00" departLane="best" from="535385933#5" to="-22781446#0"/>
    <trip id="bus177" type="bus_bus" depart="354.00" departLane="best" from="673699710#4" to="-27628467#9"/>
    <trip id="bus178" type="bus_bus" depart="356.00" departLane="best" from="604967192#0" to="-460709007"/>
    <trip id="bus179" type="bus_bus" depart="358.00" departLane="best" from="-219031041#3" to="165087296#10"/>
</routes>
