<?xml version="1.0" encoding="UTF-8"?>

<!-- generated on 08/21/20 16:09:03 by Eclipse SUMO duarouter Version 1.6.0
<configuration xmlns:xsi="http://www.w3.org/2001/XMLSchema-instance" xsi:noNamespaceSchemaLocation="http://sumo.dlr.de/xsd/duarouterConfiguration.xsd">

    <input>
        <net-file value="C:\Users\epicb\Documents\GitHub\SumoLachineArea\MergeMaps\montreal.net.xml"/>
        <route-files value="Trips/montreal.passenger.trips.xml"/>
    </input>

    <output>
        <output-file value="Trips/montreal.passenger.trips.xml.tmp"/>
        <write-trips value="true"/>
    </output>

    <time>
        <begin value="0.0"/>
        <end value="300.0"/>
    </time>

    <report>
        <no-warnings value="true"/>
        <ignore-errors value="true"/>
        <no-step-log value="true"/>
    </report>

</configuration>
-->

<routes xmlns:xsi="http://www.w3.org/2001/XMLSchema-instance" xsi:noNamespaceSchemaLocation="http://sumo.dlr.de/xsd/routes_file.xsd">
    <vType id="pas_passenger" vClass="passenger"/>
    <trip id="pas0" type="pas_passenger" depart="0.00" departLane="best" from="-29146012" to="311140320#0"/>
    <trip id="pas1" type="pas_passenger" depart="0.30" departLane="best" from="-546365142#0" to="-346952256#0"/>
    <trip id="pas2" type="pas_passenger" depart="0.60" departLane="best" from="20296267#3" to="20413550#4"/>
    <trip id="pas3" type="pas_passenger" depart="0.90" departLane="best" from="20214745#11" to="19893610#0"/>
    <trip id="pas4" type="pas_passenger" depart="1.20" departLane="best" from="-460021809" to="-45571040#2"/>
    <trip id="pas5" type="pas_passenger" depart="1.50" departLane="best" from="360133550#8" to="-49695561#1"/>
    <trip id="pas6" type="pas_passenger" depart="1.80" departLane="best" from="329384217#2" to="453940695#0"/>
    <trip id="pas7" type="pas_passenger" depart="2.10" departLane="best" from="46680093" to="554314846"/>
    <trip id="pas8" type="pas_passenger" depart="2.40" departLane="best" from="-450699993#0" to="-452679002"/>
    <trip id="pas9" type="pas_passenger" depart="2.70" departLane="best" from="42743217#10" to="22910165#15"/>
    <trip id="pas10" type="pas_passenger" depart="3.00" departLane="best" from="-35153054#0" to="33111897#4"/>
    <trip id="pas11" type="pas_passenger" depart="3.30" departLane="best" from="46689074#0" to="462772467"/>
    <trip id="pas12" type="pas_passenger" depart="3.60" departLane="best" from="-39422964" to="-472468009"/>
    <trip id="pas13" type="pas_passenger" depart="3.90" departLane="best" from="-110563256#6" to="697402950"/>
    <trip id="pas14" type="pas_passenger" depart="4.20" departLane="best" from="-40662022#3" to="41258732"/>
    <trip id="pas15" type="pas_passenger" depart="4.50" departLane="best" from="21817409#0" to="23606175#1"/>
    <trip id="pas16" type="pas_passenger" depart="4.80" departLane="best" from="20936888#2" to="460561591#0"/>
    <trip id="pas17" type="pas_passenger" depart="5.10" departLane="best" from="239700287#9" to="-47467142#0"/>
    <trip id="pas18" type="pas_passenger" depart="5.40" departLane="best" from="-22790761#2" to="20216702#1"/>
    <trip id="pas19" type="pas_passenger" depart="5.70" departLane="best" from="48666293#2" to="-242961308#3"/>
    <trip id="pas20" type="pas_passenger" depart="6.00" departLane="best" from="34228132#0" to="27172586#11"/>
    <trip id="pas21" type="pas_passenger" depart="6.30" departLane="best" from="-26287422#1" to="-371652977#5"/>
    <trip id="pas22" type="pas_passenger" depart="6.60" departLane="best" from="35152141#0" to="165257078#2"/>
    <trip id="pas23" type="pas_passenger" depart="6.90" departLane="best" from="160093848#1" to="20221026#2"/>
    <trip id="pas24" type="pas_passenger" depart="7.20" departLane="best" from="-216983161#8" to="37891137#1"/>
    <trip id="pas25" type="pas_passenger" depart="7.50" departLane="best" from="22915853#1" to="216983161#7"/>
    <trip id="pas26" type="pas_passenger" depart="7.80" departLane="best" from="-561801133#2" to="456342616#3"/>
    <trip id="pas27" type="pas_passenger" depart="8.10" departLane="best" from="460510208" to="22566322#6"/>
    <trip id="pas28" type="pas_passenger" depart="8.40" departLane="best" from="-20845595#6" to="-25166289#1"/>
    <trip id="pas29" type="pas_passenger" depart="8.70" departLane="best" from="-25380037#3" to="-20444763#16"/>
    <trip id="pas30" type="pas_passenger" depart="9.00" departLane="best" from="27663077#3" to="223184234#2"/>
    <trip id="pas31" type="pas_passenger" depart="9.30" departLane="best" from="-358966518#2" to="479304542#2"/>
    <trip id="pas32" type="pas_passenger" depart="9.60" departLane="best" from="26987185" to="454251600#0"/>
    <trip id="pas33" type="pas_passenger" depart="9.90" departLane="best" from="459375368#1" to="341094447#2"/>
    <trip id="pas34" type="pas_passenger" depart="10.20" departLane="best" from="20936888#6" to="755628441#0"/>
    <trip id="pas35" type="pas_passenger" depart="10.50" departLane="best" from="-22910786#3" to="355817168"/>
    <trip id="pas36" type="pas_passenger" depart="10.80" departLane="best" from="474382004" to="20216711#0"/>
    <trip id="pas37" type="pas_passenger" depart="11.10" departLane="best" from="458271793#1" to="-296382846#13"/>
    <trip id="pas38" type="pas_passenger" depart="11.40" departLane="best" from="164826469#0" to="-463433633"/>
    <trip id="pas39" type="pas_passenger" depart="11.70" departLane="best" from="13681692#9" to="37636653#5"/>
    <trip id="pas40" type="pas_passenger" depart="12.00" departLane="best" from="-237846562#2" to="-57754464#0"/>
    <trip id="pas41" type="pas_passenger" depart="12.30" departLane="best" from="464071096#0" to="-47466985#2"/>
    <trip id="pas42" type="pas_passenger" depart="12.60" departLane="best" from="-22894878#0" to="824568219"/>
    <trip id="pas43" type="pas_passenger" depart="12.90" departLane="best" from="21895481#0" to="-125219357#0"/>
    <trip id="pas44" type="pas_passenger" depart="13.20" departLane="best" from="22894877#4" to="-24851868"/>
    <trip id="pas45" type="pas_passenger" depart="13.50" departLane="best" from="-26699202#1" to="4320471#15"/>
    <trip id="pas46" type="pas_passenger" depart="13.80" departLane="best" from="28756689#29" to="165059030#14"/>
    <trip id="pas47" type="pas_passenger" depart="14.10" departLane="best" from="20634944#15" to="22891697#0"/>
    <trip id="pas48" type="pas_passenger" depart="14.40" departLane="best" from="197405364#8" to="-21817395#11"/>
    <trip id="pas49" type="pas_passenger" depart="14.70" departLane="best" from="453010605" to="453281037#0"/>
    <trip id="pas50" type="pas_passenger" depart="15.00" departLane="best" from="164832318#6" to="160091644#3"/>
    <trip id="pas51" type="pas_passenger" depart="15.30" departLane="best" from="25379708#0" to="20178495#0"/>
    <trip id="pas52" type="pas_passenger" depart="15.60" departLane="best" from="164826453#1" to="46765990"/>
    <trip id="pas53" type="pas_passenger" depart="15.90" departLane="best" from="47652924#1" to="-25380042#1"/>
    <trip id="pas54" type="pas_passenger" depart="16.20" departLane="best" from="-27208249#1" to="453718399"/>
    <trip id="pas55" type="pas_passenger" depart="16.50" departLane="best" from="59434216#0" to="420427010#1"/>
    <trip id="pas56" type="pas_passenger" depart="16.80" departLane="best" from="-46688950#0" to="-194417065#3"/>
    <trip id="pas57" type="pas_passenger" depart="17.10" departLane="best" from="460742442#1" to="502873294#2"/>
    <trip id="pas58" type="pas_passenger" depart="17.40" departLane="best" from="452044737#0" to="428978765"/>
    <trip id="pas59" type="pas_passenger" depart="17.70" departLane="best" from="683409568" to="209347576#2"/>
    <trip id="pas60" type="pas_passenger" depart="18.00" departLane="best" from="501208707#1" to="-460044490#15"/>
    <trip id="pas61" type="pas_passenger" depart="18.30" departLane="best" from="-20413555#2" to="463631266#1"/>
    <trip id="pas62" type="pas_passenger" depart="18.60" departLane="best" from="367861712#1" to="455027961#4"/>
    <trip id="pas63" type="pas_passenger" depart="18.90" departLane="best" from="-22910199#1" to="-473745076"/>
    <trip id="pas64" type="pas_passenger" depart="19.20" departLane="best" from="22915725#3" to="-20172517#0"/>
    <trip id="pas65" type="pas_passenger" depart="19.50" departLane="best" from="-507031513#4" to="25079294#2"/>
    <trip id="pas66" type="pas_passenger" depart="19.80" departLane="best" from="536142601#0" to="40037948#0"/>
    <trip id="pas67" type="pas_passenger" depart="20.10" departLane="best" from="13539317#5" to="164725684"/>
    <trip id="pas68" type="pas_passenger" depart="20.40" departLane="best" from="20590752#11" to="433812119"/>
    <trip id="pas69" type="pas_passenger" depart="20.70" departLane="best" from="827740884" to="-11310641#2"/>
    <trip id="pas70" type="pas_passenger" depart="21.00" departLane="best" from="4889446#10" to="455456464#11"/>
    <trip id="pas71" type="pas_passenger" depart="21.30" departLane="best" from="-165090603#9" to="-455735490#1"/>
    <trip id="pas72" type="pas_passenger" depart="21.60" departLane="best" from="-463433448#0" to="-399293579#0"/>
    <trip id="pas73" type="pas_passenger" depart="21.90" departLane="best" from="-26663353#15" to="-22915742#2"/>
    <trip id="pas74" type="pas_passenger" depart="22.20" departLane="best" from="329795964#1" to="165265052#1"/>
    <trip id="pas75" type="pas_passenger" depart="22.50" departLane="best" from="-220539001#7" to="463883625"/>
    <trip id="pas76" type="pas_passenger" depart="22.80" departLane="best" from="462591684#0" to="-459381002#3"/>
    <trip id="pas77" type="pas_passenger" depart="23.10" departLane="best" from="461160929" to="453503455"/>
    <trip id="pas78" type="pas_passenger" depart="23.40" departLane="best" from="21025588#4" to="-20835922#2"/>
    <trip id="pas79" type="pas_passenger" depart="23.70" departLane="best" from="38742080#0" to="46699766"/>
    <trip id="pas80" type="pas_passenger" depart="24.00" departLane="best" from="47467118#6" to="561538825"/>
    <trip id="pas81" type="pas_passenger" depart="24.30" departLane="best" from="-26663353#18" to="700577971"/>
    <trip id="pas82" type="pas_passenger" depart="24.60" departLane="best" from="-20910051" to="108812408#0"/>
    <trip id="pas83" type="pas_passenger" depart="24.90" departLane="best" from="21840216#1" to="27209074#5"/>
    <trip id="pas84" type="pas_passenger" depart="25.20" departLane="best" from="21020728#2" to="47735245"/>
    <trip id="pas85" type="pas_passenger" depart="25.50" departLane="best" from="453483739" to="466378414"/>
    <trip id="pas86" type="pas_passenger" depart="25.80" departLane="best" from="330150434#8" to="197405364#17"/>
    <trip id="pas87" type="pas_passenger" depart="26.10" departLane="best" from="-12718197#0" to="277311284#1"/>
    <trip id="pas88" type="pas_passenger" depart="26.40" departLane="best" from="52948926#3" to="-32799578#4"/>
    <trip id="pas89" type="pas_passenger" depart="26.70" departLane="best" from="83895946#1" to="-124758973#2"/>
    <trip id="pas90" type="pas_passenger" depart="27.00" departLane="best" from="13684453#0" to="442510811#1"/>
    <trip id="pas91" type="pas_passenger" depart="27.30" departLane="best" from="39368248" to="22910373#2"/>
    <trip id="pas92" type="pas_passenger" depart="27.60" departLane="best" from="-464694084#0" to="-454236961#0"/>
    <trip id="pas93" type="pas_passenger" depart="27.90" departLane="best" from="-22915982#2" to="27459382#3"/>
    <trip id="pas94" type="pas_passenger" depart="28.20" departLane="best" from="-125219357#3" to="-22910193#0"/>
    <trip id="pas95" type="pas_passenger" depart="28.50" departLane="best" from="393907037#0" to="182399304#2"/>
    <trip id="pas96" type="pas_passenger" depart="28.80" departLane="best" from="-12215121#2" to="164972319#1"/>
    <trip id="pas97" type="pas_passenger" depart="29.10" departLane="best" from="4886295#2" to="20634944#5"/>
    <trip id="pas98" type="pas_passenger" depart="29.40" departLane="best" from="-461254932#0" to="-22915785#3"/>
    <trip id="pas99" type="pas_passenger" depart="29.70" departLane="best" from="20441247#6" to="-453701041"/>
    <trip id="pas100" type="pas_passenger" depart="30.00" departLane="best" from="-463631279" to="-19936418#0"/>
    <trip id="pas101" type="pas_passenger" depart="30.30" departLane="best" from="25162687#2" to="454275981"/>
    <trip id="pas102" type="pas_passenger" depart="30.60" departLane="best" from="20448132#14" to="25831132"/>
    <trip id="pas103" type="pas_passenger" depart="30.90" departLane="best" from="-46680051#5" to="81459273"/>
    <trip id="pas104" type="pas_passenger" depart="31.20" departLane="best" from="-46620330#8" to="48424852"/>
    <trip id="pas105" type="pas_passenger" depart="31.50" departLane="best" from="-11872577#3" to="31016195#8"/>
    <trip id="pas106" type="pas_passenger" depart="31.80" departLane="best" from="46686943" to="22894883#8"/>
    <trip id="pas107" type="pas_passenger" depart="32.10" departLane="best" from="-393906973#4" to="-27174842#3"/>
    <trip id="pas108" type="pas_passenger" depart="32.40" departLane="best" from="794585383#1" to="822237465#2"/>
    <trip id="pas109" type="pas_passenger" depart="32.70" departLane="best" from="-452044780#1" to="164822380#4"/>
    <trip id="pas110" type="pas_passenger" depart="33.00" departLane="best" from="460917725" to="46686614#1"/>
    <trip id="pas111" type="pas_passenger" depart="33.30" departLane="best" from="-16423159#1" to="22566323#2"/>
    <trip id="pas112" type="pas_passenger" depart="33.60" departLane="best" from="-454275912" to="-20627516"/>
    <trip id="pas113" type="pas_passenger" depart="33.90" departLane="best" from="361430882" to="20296267#0"/>
    <trip id="pas114" type="pas_passenger" depart="34.20" departLane="best" from="-371652315#1" to="452069419#1"/>
    <trip id="pas115" type="pas_passenger" depart="34.50" departLane="best" from="-48432109#1" to="-460708331"/>
    <trip id="pas116" type="pas_passenger" depart="34.80" departLane="best" from="-46699729#12" to="-341094444#2"/>
    <trip id="pas117" type="pas_passenger" depart="35.10" departLane="best" from="463864539" to="-539116413#3"/>
    <trip id="pas118" type="pas_passenger" depart="35.40" departLane="best" from="514055845" to="35160274#1"/>
    <trip id="pas119" type="pas_passenger" depart="35.70" departLane="best" from="21828815#1" to="474795734#1"/>
    <trip id="pas120" type="pas_passenger" depart="36.00" departLane="best" from="110703290#1" to="-164827379#2"/>
    <trip id="pas121" type="pas_passenger" depart="36.30" departLane="best" from="29367216#2" to="-20112452"/>
    <trip id="pas122" type="pas_passenger" depart="36.60" departLane="best" from="492186145#14" to="684244553#0"/>
    <trip id="pas123" type="pas_passenger" depart="36.90" departLane="best" from="12721082#1" to="-20900072#0"/>
    <trip id="pas124" type="pas_passenger" depart="37.20" departLane="best" from="588341605#4" to="-457924060"/>
    <trip id="pas125" type="pas_passenger" depart="37.50" departLane="best" from="643574008#17" to="20214745#17"/>
    <trip id="pas126" type="pas_passenger" depart="37.80" departLane="best" from="47466991#0" to="46699746#0"/>
    <trip id="pas127" type="pas_passenger" depart="38.10" departLane="best" from="-25379995#0" to="-555505989#17"/>
    <trip id="pas128" type="pas_passenger" depart="38.40" departLane="best" from="165073243#1" to="-35152321"/>
    <trip id="pas129" type="pas_passenger" depart="38.70" departLane="best" from="499060510#3" to="-38651790#2"/>
    <trip id="pas130" type="pas_passenger" depart="39.00" departLane="best" from="-452044780#5" to="-305493812#2"/>
    <trip id="pas131" type="pas_passenger" depart="39.30" departLane="best" from="-25378518#0" to="456385182#1"/>
    <trip id="pas132" type="pas_passenger" depart="39.60" departLane="best" from="-354358330#0" to="23026652#0"/>
    <trip id="pas133" type="pas_passenger" depart="39.90" departLane="best" from="-22894777#4" to="456327281#1"/>
    <trip id="pas134" type="pas_passenger" depart="40.20" departLane="best" from="453713132#0" to="551006099#0"/>
    <trip id="pas135" type="pas_passenger" depart="40.50" departLane="best" from="-183670526#1" to="32799331"/>
    <trip id="pas136" type="pas_passenger" depart="40.80" departLane="best" from="409068393" to="-58473106#0"/>
    <trip id="pas137" type="pas_passenger" depart="41.10" departLane="best" from="354343234#3" to="-48678890#10"/>
    <trip id="pas138" type="pas_passenger" depart="41.40" departLane="best" from="22911163" to="465155221#0"/>
    <trip id="pas139" type="pas_passenger" depart="41.70" departLane="best" from="460561575#1" to="-552953027#0"/>
    <trip id="pas140" type="pas_passenger" depart="42.00" departLane="best" from="-45573918#1" to="562447783#0"/>
    <trip id="pas141" type="pas_passenger" depart="42.30" departLane="best" from="-44838500#1" to="20178489#3"/>
    <trip id="pas142" type="pas_passenger" depart="42.60" departLane="best" from="164827356#3" to="110165975"/>
    <trip id="pas143" type="pas_passenger" depart="42.90" departLane="best" from="21294234#0" to="-22884723#1"/>
    <trip id="pas144" type="pas_passenger" depart="43.20" departLane="best" from="19936414#0" to="329066843#0"/>
    <trip id="pas145" type="pas_passenger" depart="43.50" departLane="best" from="464693787#1" to="20411845#2"/>
    <trip id="pas146" type="pas_passenger" depart="43.80" departLane="best" from="-436345762" to="-46618971#1"/>
    <trip id="pas147" type="pas_passenger" depart="44.10" departLane="best" from="-32799276#1" to="-25096610#0"/>
    <trip id="pas148" type="pas_passenger" depart="44.40" departLane="best" from="-47468200" to="12219774#0"/>
    <trip id="pas149" type="pas_passenger" depart="44.70" departLane="best" from="555505970#18" to="451899889"/>
    <trip id="pas150" type="pas_passenger" depart="45.00" departLane="best" from="4852140#1" to="20412553#3"/>
    <trip id="pas151" type="pas_passenger" depart="45.30" departLane="best" from="-32817607" to="22894976#2"/>
    <trip id="pas152" type="pas_passenger" depart="45.60" departLane="best" from="36606092#1" to="822254268#1"/>
    <trip id="pas153" type="pas_passenger" depart="45.90" departLane="best" from="-436216510#3" to="452383555#0"/>
    <trip id="pas154" type="pas_passenger" depart="46.20" departLane="best" from="604323709" to="13537922#0"/>
    <trip id="pas155" type="pas_passenger" depart="46.50" departLane="best" from="20904782#1" to="-224531883#1"/>
    <trip id="pas156" type="pas_passenger" depart="46.80" departLane="best" from="32799355#1" to="-18403189#2"/>
    <trip id="pas157" type="pas_passenger" depart="47.10" departLane="best" from="453527817#0" to="451896830#1"/>
    <trip id="pas158" type="pas_passenger" depart="47.40" departLane="best" from="461357890" to="464090412#1"/>
    <trip id="pas159" type="pas_passenger" depart="47.70" departLane="best" from="-20218613#4" to="46765991#0"/>
    <trip id="pas160" type="pas_passenger" depart="48.00" departLane="best" from="380144785" to="561264363"/>
    <trip id="pas161" type="pas_passenger" depart="48.30" departLane="best" from="47563122" to="20221033#7"/>
    <trip id="pas162" type="pas_passenger" depart="48.60" departLane="best" from="46619595#4" to="-35152325#3"/>
    <trip id="pas163" type="pas_passenger" depart="48.90" departLane="best" from="678486008#0" to="329989224#0"/>
    <trip id="pas164" type="pas_passenger" depart="49.20" departLane="best" from="456329702#0" to="22662980#0"/>
    <trip id="pas165" type="pas_passenger" depart="49.50" departLane="best" from="22894981#2" to="-453678276"/>
    <trip id="pas166" type="pas_passenger" depart="49.80" departLane="best" from="455264692#0" to="20941157#3"/>
    <trip id="pas167" type="pas_passenger" depart="50.10" departLane="best" from="-422420305#31" to="450921038#1"/>
    <trip id="pas168" type="pas_passenger" depart="50.40" departLane="best" from="22910733#8" to="165085225#2"/>
    <trip id="pas169" type="pas_passenger" depart="50.70" departLane="best" from="45569325" to="164866826#5"/>
    <trip id="pas170" type="pas_passenger" depart="51.00" departLane="best" from="330718542#1" to="222241764#0"/>
    <trip id="pas171" type="pas_passenger" depart="51.30" departLane="best" from="107700940#1" to="-812688637#4"/>
    <trip id="pas172" type="pas_passenger" depart="51.60" departLane="best" from="22915874#0" to="-31016199#10"/>
    <trip id="pas173" type="pas_passenger" depart="51.90" departLane="best" from="-27208249#1" to="-47653011#2"/>
    <trip id="pas174" type="pas_passenger" depart="52.20" departLane="best" from="393674982#0" to="-32799020#0"/>
    <trip id="pas175" type="pas_passenger" depart="52.50" departLane="best" from="453011482#0" to="-527171712"/>
    <trip id="pas176" type="pas_passenger" depart="52.80" departLane="best" from="555505970#22" to="-22566322#5"/>
    <trip id="pas177" type="pas_passenger" depart="53.10" departLane="best" from="465152985#0" to="460538975"/>
    <trip id="pas178" type="pas_passenger" depart="53.40" departLane="best" from="461155576" to="27126924#0"/>
    <trip id="pas179" type="pas_passenger" depart="53.70" departLane="best" from="-46688984#1" to="587344191"/>
    <trip id="pas180" type="pas_passenger" depart="54.00" departLane="best" from="-414309669#3" to="37722304"/>
    <trip id="pas181" type="pas_passenger" depart="54.30" departLane="best" from="16004194#1" to="-20288648#1"/>
    <trip id="pas182" type="pas_passenger" depart="54.60" departLane="best" from="164822352#1" to="-480499530"/>
    <trip id="pas183" type="pas_passenger" depart="54.90" departLane="best" from="453957749#1" to="-370762068#0"/>
    <trip id="pas184" type="pas_passenger" depart="55.20" departLane="best" from="460741853#0" to="-164758145#0"/>
    <trip id="pas185" type="pas_passenger" depart="55.50" departLane="best" from="-20689837#0" to="26581319#1"/>
    <trip id="pas186" type="pas_passenger" depart="55.80" departLane="best" from="499892370" to="25916614#0"/>
    <trip id="pas187" type="pas_passenger" depart="56.10" departLane="best" from="-26663329#2" to="480178179#4"/>
    <trip id="pas188" type="pas_passenger" depart="56.40" departLane="best" from="32817581#1" to="-110424724#0"/>
    <trip id="pas189" type="pas_passenger" depart="56.70" departLane="best" from="-22910744#2" to="129387434#2"/>
    <trip id="pas190" type="pas_passenger" depart="57.00" departLane="best" from="21028108#4" to="22894595#8"/>
    <trip id="pas191" type="pas_passenger" depart="57.30" departLane="best" from="463398920" to="25906757#27"/>
    <trip id="pas192" type="pas_passenger" depart="57.60" departLane="best" from="59877096#3" to="16422798#2"/>
    <trip id="pas193" type="pas_passenger" depart="57.90" departLane="best" from="-561497483#0" to="31016090#5"/>
    <trip id="pas194" type="pas_passenger" depart="58.20" departLane="best" from="47565326#2" to="165086401#0"/>
    <trip id="pas195" type="pas_passenger" depart="58.50" departLane="best" from="-165215460#5" to="11871304#0"/>
    <trip id="pas196" type="pas_passenger" depart="58.80" departLane="best" from="-360154157#1" to="475071593#31"/>
    <trip id="pas197" type="pas_passenger" depart="59.10" departLane="best" from="-502873294#2" to="196359058"/>
    <trip id="pas198" type="pas_passenger" depart="59.40" departLane="best" from="26116049#4" to="-187246943#0"/>
    <trip id="pas199" type="pas_passenger" depart="59.70" departLane="best" from="-20896759#0" to="20904782#2"/>
    <trip id="pas200" type="pas_passenger" depart="60.00" departLane="best" from="-455252470#4" to="-199258628"/>
    <trip id="pas201" type="pas_passenger" depart="60.30" departLane="best" from="436210818" to="42848385#3"/>
    <trip id="pas202" type="pas_passenger" depart="60.60" departLane="best" from="25850472" to="-22910181#0"/>
    <trip id="pas203" type="pas_passenger" depart="60.90" departLane="best" from="457861817" to="825946649#8"/>
    <trip id="pas204" type="pas_passenger" depart="61.20" departLane="best" from="-22774203#0" to="339583579"/>
    <trip id="pas205" type="pas_passenger" depart="61.50" departLane="best" from="-173961712#0" to="-22770781#0"/>
    <trip id="pas206" type="pas_passenger" depart="61.80" departLane="best" from="-542817481#4" to="647825826#14"/>
    <trip id="pas207" type="pas_passenger" depart="62.10" departLane="best" from="188425435#0" to="219035198#2"/>
    <trip id="pas208" type="pas_passenger" depart="62.40" departLane="best" from="47467118#8" to="13501732"/>
    <trip id="pas209" type="pas_passenger" depart="62.70" departLane="best" from="-46678079" to="-205572168#15"/>
    <trip id="pas210" type="pas_passenger" depart="63.00" departLane="best" from="-447602030#0" to="25865205#7"/>
    <trip id="pas211" type="pas_passenger" depart="63.30" departLane="best" from="474364780" to="794585384#0"/>
    <trip id="pas212" type="pas_passenger" depart="63.60" departLane="best" from="-45844985#1" to="32799230#8"/>
    <trip id="pas213" type="pas_passenger" depart="63.90" departLane="best" departSpeed="max" from="-47877699" to="22891692#1"/>
    <trip id="pas214" type="pas_passenger" depart="64.20" departLane="best" from="-12196837#2" to="501703234#1"/>
    <trip id="pas215" type="pas_passenger" depart="64.50" departLane="best" from="453524207" to="452037085"/>
    <trip id="pas216" type="pas_passenger" depart="64.80" departLane="best" from="27208099#7" to="119151629#2"/>
    <trip id="pas217" type="pas_passenger" depart="65.10" departLane="best" from="463825907#0" to="205578416#0"/>
    <trip id="pas218" type="pas_passenger" depart="65.40" departLane="best" from="311420901#5" to="-463454893"/>
    <trip id="pas219" type="pas_passenger" depart="65.70" departLane="best" from="-305493812#2" to="398943484#2"/>
    <trip id="pas220" type="pas_passenger" depart="66.00" departLane="best" from="-475308539#0" to="-165086009#6"/>
    <trip id="pas221" type="pas_passenger" depart="66.30" departLane="best" from="-467936382#6" to="164866723#0"/>
    <trip id="pas222" type="pas_passenger" depart="66.60" departLane="best" from="-32792155#4" to="-23026596#1"/>
    <trip id="pas223" type="pas_passenger" depart="66.90" departLane="best" from="393726762#0" to="19937696#16"/>
    <trip id="pas224" type="pas_passenger" depart="67.20" departLane="best" from="20447054#4" to="39422979#3"/>
    <trip id="pas225" type="pas_passenger" depart="67.50" departLane="best" from="-165214768#2" to="20854605#8"/>
    <trip id="pas226" type="pas_passenger" depart="67.80" departLane="best" from="776650852#1" to="-464110263#11"/>
    <trip id="pas227" type="pas_passenger" depart="68.10" departLane="best" from="371654204#0" to="-28755538#0"/>
    <trip id="pas228" type="pas_passenger" depart="68.40" departLane="best" from="11393831#0" to="18373385#1"/>
    <trip id="pas229" type="pas_passenger" depart="68.70" departLane="best" from="-397377653#8" to="-453285425#5"/>
    <trip id="pas230" type="pas_passenger" depart="69.00" departLane="best" departSpeed="max" from="-538517719#2" to="20186992#1"/>
    <trip id="pas231" type="pas_passenger" depart="69.30" departLane="best" from="12718175#4" to="20414652#7"/>
    <trip id="pas232" type="pas_passenger" depart="69.60" departLane="best" from="-454235275#0" to="22359218"/>
    <trip id="pas233" type="pas_passenger" depart="69.90" departLane="best" from="452652551" to="20113492#0"/>
    <trip id="pas234" type="pas_passenger" depart="70.20" departLane="best" from="-86121520#3" to="460011856#3"/>
    <trip id="pas235" type="pas_passenger" depart="70.50" departLane="best" from="26699502#3" to="20441252#2"/>
    <trip id="pas236" type="pas_passenger" depart="70.80" departLane="best" from="-47471039#0" to="58472960#14"/>
    <trip id="pas237" type="pas_passenger" depart="71.10" departLane="best" from="-22817867#7" to="486789483"/>
    <trip id="pas238" type="pas_passenger" depart="71.40" departLane="best" from="-47467133" to="48424050#9"/>
    <trip id="pas239" type="pas_passenger" depart="71.70" departLane="best" from="-165086009#6" to="362326133#5"/>
    <trip id="pas240" type="pas_passenger" depart="72.00" departLane="best" from="20195000#4" to="25915630#1"/>
    <trip id="pas241" type="pas_passenger" depart="72.30" departLane="best" from="-20695777" to="114145855"/>
    <trip id="pas242" type="pas_passenger" depart="72.60" departLane="best" from="10530798#2" to="22891701#1"/>
    <trip id="pas243" type="pas_passenger" depart="72.90" departLane="best" from="396983238#5" to="561701739#0"/>
    <trip id="pas244" type="pas_passenger" depart="73.20" departLane="best" from="-46680006#3" to="-165096626#3"/>
    <trip id="pas245" type="pas_passenger" depart="73.50" departLane="best" from="-29366939#3" to="48421822#0"/>
    <trip id="pas246" type="pas_passenger" depart="73.80" departLane="best" from="22746557#0" to="32792703#1"/>
    <trip id="pas247" type="pas_passenger" depart="74.10" departLane="best" from="86121520#0" to="454835624"/>
    <trip id="pas248" type="pas_passenger" depart="74.40" departLane="best" from="22915950#2" to="453511897#4"/>
    <trip id="pas249" type="pas_passenger" depart="74.70" departLane="best" from="-27126851" to="459825814#3"/>
    <trip id="pas250" type="pas_passenger" depart="75.00" departLane="best" from="-27208893#17" to="472532503"/>
    <trip id="pas251" type="pas_passenger" depart="75.30" departLane="best" from="464940902#1" to="22894900"/>
    <trip id="pas252" type="pas_passenger" depart="75.60" departLane="best" from="-464069866#1" to="-22894906#1"/>
    <trip id="pas253" type="pas_passenger" depart="75.90" departLane="best" from="20288661#6" to="-38742512#5"/>
    <trip id="pas254" type="pas_passenger" depart="76.20" departLane="best" from="10981655" to="-25379416#4"/>
    <trip id="pas255" type="pas_passenger" depart="76.50" departLane="best" from="-20575678#0" to="454209733"/>
    <trip id="pas256" type="pas_passenger" depart="76.80" departLane="best" from="453707585" to="236426206#4"/>