<?xml version="1.0" encoding="UTF-8"?>

<!-- generated on 09/03/20 14:25:19 by Eclipse SUMO duarouter Version 1.6.0
<configuration xmlns:xsi="http://www.w3.org/2001/XMLSchema-instance" xsi:noNamespaceSchemaLocation="http://sumo.dlr.de/xsd/duarouterConfiguration.xsd">

    <input>
        <net-file value="C:\Users\epicb\Documents\GitHub\SumoLachineArea\Montreal/montreal.net.xml"/>
        <route-files value="C:\Users\epicb\Documents\GitHub\SumoLachineArea\Montreal/Trips/montreal.truck.trips.xml"/>
    </input>

    <output>
        <output-file value="C:\Users\epicb\Documents\GitHub\SumoLachineArea\Montreal/Trips/montreal.truck.trips.xml.tmp"/>
        <write-trips value="true"/>
    </output>

    <time>
        <begin value="0"/>
        <end value="360.0"/>
    </time>

    <report>
        <no-warnings value="true"/>
        <ignore-errors value="true"/>
        <no-step-log value="true"/>
    </report>

</configuration>
-->

<routes xmlns:xsi="http://www.w3.org/2001/XMLSchema-instance" xsi:noNamespaceSchemaLocation="http://sumo.dlr.de/xsd/routes_file.xsd">
    <vType id="truck_truck" vClass="truck"/>
    <trip id="truck0" type="truck_truck" depart="0.00" departLane="best" from="26987251#1" to="-138872551#0"/>
    <trip id="truck1" type="truck_truck" depart="2.50" departLane="best" from="-460561592#1" to="-415609092#19"/>
    <trip id="truck2" type="truck_truck" depart="5.00" departLane="best" from="415609092#22" to="329066846#0"/>
    <trip id="truck3" type="truck_truck" depart="7.50" departLane="best" from="47470847#0" to="-20641120#5"/>
    <trip id="truck4" type="truck_truck" depart="10.00" departLane="best" from="164610225#2" to="-16423159#0"/>
    <trip id="truck5" type="truck_truck" depart="12.50" departLane="best" from="-38151423" to="20447452#1"/>
    <trip id="truck6" type="truck_truck" depart="15.00" departLane="best" from="-152517064#0" to="-342137679#1"/>
    <trip id="truck7" type="truck_truck" depart="17.50" departLane="best" from="27217390#0" to="222088688#1"/>
    <trip id="truck8" type="truck_truck" depart="20.00" departLane="best" from="-38742080#9" to="22915853#3"/>
    <trip id="truck9" type="truck_truck" depart="22.50" departLane="best" from="455688756#3" to="-110479584#0"/>
    <trip id="truck10" type="truck_truck" depart="25.00" departLane="best" from="455264731#1" to="363464830#6"/>
    <trip id="truck11" type="truck_truck" depart="27.50" departLane="best" from="-5029507#0" to="-25757173"/>
    <trip id="truck12" type="truck_truck" depart="30.00" departLane="best" from="57753769#1" to="-553415676#1"/>
    <trip id="truck13" type="truck_truck" depart="32.50" departLane="best" from="-20868857#3" to="-20945069#1"/>
    <trip id="truck14" type="truck_truck" depart="35.00" departLane="best" from="464068203#1" to="24360301#1"/>
    <trip id="truck15" type="truck_truck" depart="37.50" departLane="best" from="455463868#4" to="41230312#2"/>
    <trip id="truck16" type="truck_truck" depart="40.00" departLane="best" from="20934517#0" to="68254908#0"/>
    <trip id="truck17" type="truck_truck" depart="42.50" departLane="best" from="10801441#2" to="22775270#0"/>
    <trip id="truck18" type="truck_truck" depart="45.00" departLane="best" from="460708599" to="25915589#0"/>
    <trip id="truck19" type="truck_truck" depart="47.50" departLane="best" from="466406353#1" to="22909943#0"/>
    <trip id="truck20" type="truck_truck" depart="50.00" departLane="best" from="366840862#21" to="-165087297#1"/>
    <trip id="truck21" type="truck_truck" depart="52.50" departLane="best" from="-40602771#0" to="-46678251#6"/>
    <trip id="truck22" type="truck_truck" depart="55.00" departLane="best" from="-20414661#4" to="-437675555"/>
    <trip id="truck23" type="truck_truck" depart="57.50" departLane="best" from="-21256143#1" to="-464091831"/>
    <trip id="truck24" type="truck_truck" depart="60.00" departLane="best" from="26719681#1" to="106550682#0"/>
    <trip id="truck25" type="truck_truck" depart="62.50" departLane="best" from="-812688636#6" to="-374137277#2"/>
    <trip id="truck26" type="truck_truck" depart="65.00" departLane="best" from="-45572855#3" to="52948944#11"/>
    <trip id="truck27" type="truck_truck" depart="67.50" departLane="best" from="27208582#3" to="25166457#1"/>
    <trip id="truck28" type="truck_truck" depart="70.00" departLane="best" from="-26902080#1" to="411198619#1"/>
    <trip id="truck29" type="truck_truck" depart="72.50" departLane="best" from="-26083341#2" to="11394676#0"/>
    <trip id="truck30" type="truck_truck" depart="75.00" departLane="best" from="794887881#0" to="27208082#15"/>
    <trip id="truck31" type="truck_truck" depart="77.50" departLane="best" from="22566311#4" to="339976283#3"/>
    <trip id="truck32" type="truck_truck" depart="80.00" departLane="best" from="463676555#11" to="453483722"/>
    <trip id="truck33" type="truck_truck" depart="82.50" departLane="best" from="-408872860#3" to="-164758156#3"/>
    <trip id="truck34" type="truck_truck" depart="85.00" departLane="best" from="-47467042#1" to="-461163007#1"/>
    <trip id="truck35" type="truck_truck" depart="87.50" departLane="best" from="-354381084#3" to="546337239#0"/>
    <trip id="truck36" type="truck_truck" depart="90.00" departLane="best" from="46699730#0" to="-47495794#0"/>
    <trip id="truck37" type="truck_truck" depart="92.50" departLane="best" from="274693150#5" to="131252259#0"/>
    <trip id="truck38" type="truck_truck" depart="95.00" departLane="best" from="480214787#0" to="197369125#0"/>
    <trip id="truck39" type="truck_truck" depart="97.50" departLane="best" departSpeed="max" from="-45570362" to="-453750355#0"/>
    <trip id="truck40" type="truck_truck" depart="100.00" departLane="best" departSpeed="max" from="22774446#0" to="-459518152#4"/>
    <trip id="truck41" type="truck_truck" depart="102.50" departLane="best" from="22909381#1" to="47500632#2"/>
    <trip id="truck42" type="truck_truck" depart="105.00" departLane="best" from="12203289#2" to="-40312427#2"/>
    <trip id="truck43" type="truck_truck" depart="107.50" departLane="best" from="87370323#11" to="20565281#1"/>
    <trip id="truck44" type="truck_truck" depart="110.00" departLane="best" from="-20711624#1" to="-165120286"/>
    <trip id="truck45" type="truck_truck" depart="112.50" departLane="best" from="-21914318#8" to="26663239#3"/>
    <trip id="truck46" type="truck_truck" depart="115.00" departLane="best" from="453769311#1" to="164831294#1"/>
    <trip id="truck47" type="truck_truck" depart="117.50" departLane="best" departSpeed="max" from="-19936419#1" to="11584385#1"/>
    <trip id="truck48" type="truck_truck" depart="120.00" departLane="best" from="8290407#0" to="21001463#5"/>
    <trip id="truck49" type="truck_truck" depart="122.50" departLane="best" from="679446418" to="46678063#2"/>
    <trip id="truck50" type="truck_truck" depart="125.00" departLane="best" from="-11310919#0" to="396983240#0"/>
    <trip id="truck51" type="truck_truck" depart="127.50" departLane="best" from="329067231#0" to="217912689#2"/>
    <trip id="truck52" type="truck_truck" depart="130.00" departLane="best" from="-45572852#0" to="27208214"/>
    <trip id="truck53" type="truck_truck" depart="132.50" departLane="best" from="-22566038#0" to="165087297#3"/>
    <trip id="truck54" type="truck_truck" depart="135.00" departLane="best" from="165325649#0" to="562434723#1"/>
    <trip id="truck55" type="truck_truck" depart="137.50" departLane="best" from="466899095#0" to="-459825814#0"/>
    <trip id="truck56" type="truck_truck" depart="140.00" departLane="best" from="20296266#1" to="-27650532#1"/>
    <trip id="truck57" type="truck_truck" depart="142.50" departLane="best" from="47919106#3" to="46688836"/>
    <trip id="truck58" type="truck_truck" depart="145.00" departLane="best" from="-46678109" to="27206184#0"/>
    <trip id="truck59" type="truck_truck" depart="147.50" departLane="best" departSpeed="max" from="23946213" to="-25379708#3"/>
    <trip id="truck60" type="truck_truck" depart="150.00" departLane="best" from="451899055#3" to="21843375#5"/>
    <trip id="truck61" type="truck_truck" depart="152.50" departLane="best" from="453460067#1" to="21027512#3"/>
    <trip id="truck62" type="truck_truck" depart="155.00" departLane="best" from="-103935602#0" to="-48432533#1"/>
    <trip id="truck63" type="truck_truck" depart="157.50" departLane="best" from="-125233791#1" to="4952333#1"/>
    <trip id="truck64" type="truck_truck" depart="160.00" departLane="best" from="467936382#4" to="461365078"/>
    <trip id="truck65" type="truck_truck" depart="162.50" departLane="best" from="-46689108" to="-185696180#1"/>
    <trip id="truck66" type="truck_truck" depart="165.00" departLane="best" departSpeed="max" from="467438986#0" to="555505985#3"/>
    <trip id="truck67" type="truck_truck" depart="167.50" departLane="best" departSpeed="max" from="-20569503#1" to="20226178#2"/>
    <trip id="truck68" type="truck_truck" depart="170.00" departLane="best" from="-20186999#5" to="452017877#0"/>
    <trip id="truck69" type="truck_truck" depart="172.50" departLane="best" from="452063702#0" to="-22894972#2"/>
    <trip id="truck70" type="truck_truck" depart="175.00" departLane="best" departSpeed="max" from="199105836" to="22770750#4"/>
    <trip id="truck71" type="truck_truck" depart="177.50" departLane="best" from="-45570988#1" to="46689043#2"/>
    <trip id="truck72" type="truck_truck" depart="180.00" departLane="best" departSpeed="max" from="164615372#0" to="-38651785#0"/>
    <trip id="truck73" type="truck_truck" depart="182.50" departLane="best" from="21019647#17" to="41230314#7"/>
    <trip id="truck74" type="truck_truck" depart="185.00" departLane="best" from="-328753815" to="-47471336#0"/>
    <trip id="truck75" type="truck_truck" depart="187.50" departLane="best" from="825946649#2" to="27459384#6"/>
    <trip id="truck76" type="truck_truck" depart="190.00" departLane="best" from="164954750#8" to="20707069#1"/>
    <trip id="truck77" type="truck_truck" depart="192.50" departLane="best" from="-22818352#0" to="-422668951#0"/>
    <trip id="truck78" type="truck_truck" depart="195.00" departLane="best" from="-4889406#2" to="22915741#3"/>
    <trip id="truck79" type="truck_truck" depart="197.50" departLane="best" from="-412835308#1" to="-404115894#3"/>
    <trip id="truck80" type="truck_truck" depart="200.00" departLane="best" from="-20202900#0" to="26914399#6"/>
    <trip id="truck81" type="truck_truck" depart="202.50" departLane="best" departSpeed="max" from="-408869215#1" to="476130449#1"/>
    <trip id="truck82" type="truck_truck" depart="205.00" departLane="best" from="46620332#0" to="-20219138#2"/>
    <trip id="truck83" type="truck_truck" depart="207.50" departLane="best" departSpeed="max" from="-435110549" to="320722717#12"/>
    <trip id="truck84" type="truck_truck" depart="210.00" departLane="best" from="-363565871#0" to="-22910417#3"/>
    <trip id="truck85" type="truck_truck" depart="212.50" departLane="best" from="51541224" to="22894775#1"/>
    <trip id="truck86" type="truck_truck" depart="215.00" departLane="best" from="198868785" to="453704196#0"/>
    <trip id="truck87" type="truck_truck" depart="217.50" departLane="best" from="455492073#1" to="-32799208#14"/>
    <trip id="truck88" type="truck_truck" depart="220.00" departLane="best" from="-20917871#1" to="165059041#4"/>
    <trip id="truck89" type="truck_truck" depart="222.50" departLane="best" from="164758138#1" to="19937698#5"/>
    <trip id="truck90" type="truck_truck" depart="225.00" departLane="best" departSpeed="max" from="40312429" to="32799263#0"/>
    <trip id="truck91" type="truck_truck" depart="227.50" departLane="best" from="741889017" to="-21166126#15"/>
    <trip id="truck92" type="truck_truck" depart="230.00" departLane="best" from="12716215#0" to="-561260819#0"/>
    <trip id="truck93" type="truck_truck" depart="232.50" departLane="best" from="466406351" to="-454228587"/>
    <trip id="truck94" type="truck_truck" depart="235.00" departLane="best" from="-29366374#3" to="177235883"/>
    <trip id="truck95" type="truck_truck" depart="237.50" departLane="best" from="164258580#8" to="-464121409#0"/>
    <trip id="truck96" type="truck_truck" depart="240.00" departLane="best" from="-453242443" to="48621909#3"/>
    <trip id="truck97" type="truck_truck" depart="242.50" departLane="best" from="165073243#6" to="46678080#1"/>
    <trip id="truck98" type="truck_truck" depart="245.00" departLane="best" from="21889620#2" to="-16663271#4"/>
    <trip id="truck99" type="truck_truck" depart="247.50" departLane="best" from="94047296" to="462766324"/>
    <trip id="truck100" type="truck_truck" depart="250.00" departLane="best" from="656026964" to="4889437#0"/>
    <trip id="truck101" type="truck_truck" depart="252.50" departLane="best" from="464097864" to="-26929472#3"/>
    <trip id="truck102" type="truck_truck" depart="255.00" departLane="best" from="20176230#1" to="-38911509#4"/>
    <trip id="truck103" type="truck_truck" depart="257.50" departLane="best" from="12514169#32" to="-187887633#4"/>
    <trip id="truck104" type="truck_truck" depart="260.00" departLane="best" from="108258042" to="75608018"/>
    <trip id="truck105" type="truck_truck" depart="262.50" departLane="best" from="-45571016#0" to="453688070"/>
    <trip id="truck106" type="truck_truck" depart="265.00" departLane="best" from="167252479#2" to="164831918#2"/>
    <trip id="truck107" type="truck_truck" depart="267.50" departLane="best" from="57754462#0" to="827050971#8"/>
    <trip id="truck108" type="truck_truck" depart="270.00" departLane="best" departSpeed="max" from="22298444#0" to="393872824#1"/>
    <trip id="truck109" type="truck_truck" depart="272.50" departLane="best" from="-25162965#2" to="-46689023"/>
    <trip id="truck110" type="truck_truck" depart="275.00" departLane="best" from="649197162" to="22910171#1"/>
    <trip id="truck111" type="truck_truck" depart="277.50" departLane="best" from="21166126#24" to="436235134#3"/>
    <trip id="truck112" type="truck_truck" depart="280.00" departLane="best" from="-184514710#1" to="22910809#1"/>
    <trip id="truck113" type="truck_truck" depart="282.50" departLane="best" from="20319595#0" to="465368631"/>
    <trip id="truck114" type="truck_truck" depart="285.00" departLane="best" from="-25379176#13" to="598964318#4"/>
    <trip id="truck115" type="truck_truck" depart="287.50" departLane="best" from="-20414681#1" to="-31016069"/>
    <trip id="truck116" type="truck_truck" depart="290.00" departLane="best" from="22911193" to="32799624#1"/>
    <trip id="truck117" type="truck_truck" depart="292.50" departLane="best" from="-42848384#4" to="-22891481#4"/>
    <trip id="truck118" type="truck_truck" depart="295.00" departLane="best" from="47468073" to="-453733909#5"/>
    <trip id="truck119" type="truck_truck" depart="297.50" departLane="best" from="22911172#1" to="25916621#0"/>
    <trip id="truck120" type="truck_truck" depart="300.00" departLane="best" from="16003344" to="22910786#0"/>
    <trip id="truck121" type="truck_truck" depart="302.50" departLane="best" from="20574073#1" to="519275097#1"/>
    <trip id="truck122" type="truck_truck" depart="305.00" departLane="best" from="-334786310#19" to="393698267#1"/>
    <trip id="truck123" type="truck_truck" depart="307.50" departLane="best" departSpeed="max" from="-435433084" to="131252263#18"/>
    <trip id="truck124" type="truck_truck" depart="310.00" departLane="best" from="311420917#4" to="-470059892"/>
    <trip id="truck125" type="truck_truck" depart="312.50" departLane="best" from="-47467095" to="436539041"/>
    <trip id="truck126" type="truck_truck" depart="315.00" departLane="best" from="-20221697#0" to="194417066#2"/>
    <trip id="truck127" type="truck_truck" depart="317.50" departLane="best" from="92352267#3" to="832706762#12"/>
    <trip id="truck128" type="truck_truck" depart="320.00" departLane="best" from="-20228751#6" to="-38742503#3"/>
    <trip id="truck129" type="truck_truck" depart="322.50" departLane="best" from="-45571016#0" to="514055838#1"/>
    <trip id="truck130" type="truck_truck" depart="325.00" departLane="best" from="471490129#1" to="471492589#3"/>
    <trip id="truck131" type="truck_truck" depart="327.50" departLane="best" from="-810813980#4" to="-26022501#4"/>
    <trip id="truck132" type="truck_truck" depart="330.00" departLane="best" from="461358560" to="37182031#0"/>
    <trip id="truck133" type="truck_truck" depart="332.50" departLane="best" from="24457407#11" to="783084332"/>
    <trip id="truck134" type="truck_truck" depart="335.00" departLane="best" from="27419428#7" to="-110703293#3"/>
    <trip id="truck135" type="truck_truck" depart="337.50" departLane="best" from="456383138" to="-46765991#2"/>
    <trip id="truck136" type="truck_truck" depart="340.00" departLane="best" from="29294789#1" to="538751569#0"/>
    <trip id="truck137" type="truck_truck" depart="342.50" departLane="best" from="-22910171#0" to="-22781448"/>
    <trip id="truck138" type="truck_truck" depart="345.00" departLane="best" from="-21849233#5" to="22781159#2"/>
    <trip id="truck139" type="truck_truck" depart="347.50" departLane="best" from="-459386844#2" to="246872471#0"/>
    <trip id="truck140" type="truck_truck" depart="350.00" departLane="best" from="38986541#0" to="-354643611#1"/>
    <trip id="truck141" type="truck_truck" depart="352.50" departLane="best" from="26663353#3" to="-460020844#1"/>
    <trip id="truck142" type="truck_truck" depart="355.00" departLane="best" departSpeed="max" from="20191935#0" to="47608988"/>
    <trip id="truck143" type="truck_truck" depart="357.50" departLane="best" from="463886937" to="-20904813#0"/>
</routes>
