<routes xmlns:xsi="http://www.w3.org/2001/XMLSchema-instance" xsi:noNamespaceSchemaLocation="http://sumo.dlr.de/xsd/routes_file.xsd">
    <vType id="moto_motorcycle" vClass="motorcycle" />
    <vehicle id="moto63" type="moto_motorcycle" depart="21600.79" departLane="free" departSpeed="max" fromTaz="taz_0" toTaz="taz_1">
        <route edges="-120486714#9 -120486714#8 -120486714#7 -120486714#6 -120486714#5 -120486714#4 -120486714#3 -120486714#2 -120486714#1 -120486714#0 -454844521 -454844520 -454271342#5 -454271342#4 -454271342#3 -454271342#2 -454271342#1 -454271342#0 -483203652#3 -483203652#2 -483203652#1 -483203652#0 -483203653 -483204482 -462336672 -657432022#14 -657432022#13 -657432022#12 -657432022#11 -657432022#9 -657432022#8 25271539#1 25379416#0" />
    <stop lane="25271539#1_1" startPos="-1.00" endPos="-1.00" duration="1.00" friendlyPos="1" /><stop lane="25379416#0_1" startPos="-1.00" endPos="-1.00" duration="1.00" friendlyPos="1" /></vehicle>
    <vehicle id="moto88" type="moto_motorcycle" depart="21616.72" departLane="free" departSpeed="max" fromTaz="taz_0" toTaz="taz_1">
        <route edges="499060510#0 -120486723 -120486714#8 -120486714#7 -120486714#6 -120486714#5 -120486714#4 -120486714#3 -120486714#2 -120486714#1 -120486714#0 -454844521 -454844520 -454271342#5 -454271342#4 -454271342#3 -454271342#2 -454271342#1 -454271342#0 -483203652#3 -483203652#2 -483203652#1 -483203652#0 -483203653 -483204482 -462336672 -657432022#14 -657432022#13 -657432022#12 -657432022#11 -657432022#9 -657432022#8 -657432022#7 -657432022#6 -657432022#5 25270512#4 25270512#5 25270512#6 25379995#0 25379995#1 25379995#2" />
    <stop lane="-120486723_1" startPos="-1.00" endPos="-1.00" duration="1.00" friendlyPos="1" /><stop lane="25270512#4_1" startPos="-1.00" endPos="-1.00" duration="1.00" friendlyPos="1" /><stop lane="25270512#5_1" startPos="-1.00" endPos="-1.00" duration="1.00" friendlyPos="1" /><stop lane="25270512#6_1" startPos="-1.00" endPos="-1.00" duration="1.00" friendlyPos="1" /><stop lane="25379995#0_1" startPos="-1.00" endPos="-1.00" duration="1.00" friendlyPos="1" /><stop lane="25379995#1_1" startPos="-1.00" endPos="-1.00" duration="1.00" friendlyPos="1" /><stop lane="25379995#2_1" startPos="-1.00" endPos="-1.00" duration="1.00" friendlyPos="1" /></vehicle>
    <vehicle id="moto142" type="moto_motorcycle" depart="21639.03" departLane="free" departSpeed="max" fromTaz="taz_0" toTaz="taz_1">
        <route edges="25123751#0 25123751#1 -120486714#14 -120486714#13 -120486714#12 -120486714#11 -120486714#10 -120486714#9 -120486714#8 -120486714#7 -120486714#6 -120486714#5 -120486714#4 -120486714#3 -120486714#2 -120486714#1 -120486714#0 -454844521 -454844520 -454271342#5 -454271342#4 -454271342#3 -454271342#2 -454271342#1 -454271342#0 -483203652#3 -483203652#2 -483203652#1 -483203652#0 -483203653 -483204482 -462336672 -657432022#14 -657432022#13 -657432022#12 -657432022#11 25379602 25510714#2 25510714#3 25510714#4 25510714#5 25510714#6 25510714#7 25379708#0 25379708#1 25379708#2 -25379708#2" />
    <stop lane="25123751#0_1" startPos="-1.00" endPos="-1.00" duration="1.00" friendlyPos="1" /><stop lane="25123751#1_1" startPos="-1.00" endPos="-1.00" duration="1.00" friendlyPos="1" /><stop lane="25379602_1" startPos="-1.00" endPos="-1.00" duration="1.00" friendlyPos="1" /><stop lane="25510714#2_1" startPos="-1.00" endPos="-1.00" duration="1.00" friendlyPos="1" /><stop lane="25510714#3_1" startPos="-1.00" endPos="-1.00" duration="1.00" friendlyPos="1" /><stop lane="25510714#4_1" startPos="-1.00" endPos="-1.00" duration="1.00" friendlyPos="1" /><stop lane="25510714#5_1" startPos="-1.00" endPos="-1.00" duration="1.00" friendlyPos="1" /><stop lane="25510714#6_1" startPos="-1.00" endPos="-1.00" duration="1.00" friendlyPos="1" /><stop lane="25510714#7_1" startPos="-1.00" endPos="-1.00" duration="1.00" friendlyPos="1" /><stop lane="25379708#0_1" startPos="-1.00" endPos="-1.00" duration="1.00" friendlyPos="1" /><stop lane="25379708#1_1" startPos="-1.00" endPos="-1.00" duration="1.00" friendlyPos="1" /><stop lane="25379708#2_1" startPos="-1.00" endPos="-1.00" duration="1.00" friendlyPos="1" /><stop lane="-25379708#2_1" startPos="-1.00" endPos="-1.00" duration="1.00" friendlyPos="1" /></vehicle>
    <vehicle id="moto5" type="moto_motorcycle" depart="21655.65" departLane="free" departSpeed="max" fromTaz="taz_0" toTaz="taz_1">
        <route edges="-120486714#14 -120486714#13 -120486714#12 -120486714#11 -120486714#10 -120486714#9 -120486714#8 -120486714#7 -120486714#6 -120486714#5 -120486714#4 -120486714#3 -120486714#2 -120486714#1 -120486714#0 -454844521 -454844520 -454271342#5 -454271342#4 -454271342#3 -454271342#2 -454271342#1 -454271342#0 -483203652#3 -483203652#2 -483203652#1 -483203652#0 -483203653 -483204482 -462336672 -657432022#14 -657432022#13 -657432022#12 -657432022#11 -657432022#9 -657432022#8 -657432022#7 -657432022#6 25270921#5" />
    <stop lane="25270921#5_1" startPos="-1.00" endPos="-1.00" duration="1.00" friendlyPos="1" /></vehicle>
    <vehicle id="moto129" type="moto_motorcycle" depart="21716.59" departLane="free" departSpeed="max" fromTaz="taz_0" toTaz="taz_1">
        <route edges="-462717519 -555505978#5 -555505978#4 -555505978#3 25123766#2 -120486714#5 -120486714#4 -120486714#3 -120486714#2 -120486714#1 -120486714#0 -454844521 -454844520 -454271342#5 -454271342#4 -454271342#3 -454271342#2 -454271342#1 -454271342#0 -483203652#3 -483203652#2 -483203652#1 -483203652#0 -483203653 -483204482 -462336672 -657432022#14 -657432022#13 -657432022#12 -657432022#11 25379602 25510714#2 25510714#3 25510714#4 25510714#5 25510714#6 25510714#7" />
    <stop lane="-462717519_1" startPos="-1.00" endPos="-1.00" duration="1.00" friendlyPos="1" /><stop lane="-555505978#5_1" startPos="-1.00" endPos="-1.00" duration="1.00" friendlyPos="1" /><stop lane="-555505978#4_1" startPos="-1.00" endPos="-1.00" duration="1.00" friendlyPos="1" /><stop lane="-555505978#3_1" startPos="-1.00" endPos="-1.00" duration="1.00" friendlyPos="1" /><stop lane="25123766#2_1" startPos="-1.00" endPos="-1.00" duration="1.00" friendlyPos="1" /><stop lane="25379602_1" startPos="-1.00" endPos="-1.00" duration="1.00" friendlyPos="1" /><stop lane="25510714#2_1" startPos="-1.00" endPos="-1.00" duration="1.00" friendlyPos="1" /><stop lane="25510714#3_1" startPos="-1.00" endPos="-1.00" duration="1.00" friendlyPos="1" /><stop lane="25510714#4_1" startPos="-1.00" endPos="-1.00" duration="1.00" friendlyPos="1" /><stop lane="25510714#5_1" startPos="-1.00" endPos="-1.00" duration="1.00" friendlyPos="1" /><stop lane="25510714#6_1" startPos="-1.00" endPos="-1.00" duration="1.00" friendlyPos="1" /><stop lane="25510714#7_1" startPos="-1.00" endPos="-1.00" duration="1.00" friendlyPos="1" /></vehicle>
    <vehicle id="moto19" type="moto_motorcycle" depart="21763.02" departLane="free" departSpeed="max" fromTaz="taz_0" toTaz="taz_1">
        <route edges="-25123753#4 -25123753#3 -120486714#13 -120486714#12 -120486714#11 -120486714#10 -120486714#9 -120486714#8 -120486714#7 -120486714#6 -120486714#5 -120486714#4 -120486714#3 -120486714#2 -120486714#1 -120486714#0 -454844521 -454844520 -454271342#5 -454271342#4 -454271342#3 -454271342#2 -454271342#1 -454271342#0 -483203652#3 -483203652#2 -483203652#1 -483203652#0 -483203653 -483204482 -462336672 -657432022#14 -657432022#13 -657432022#12 -657432022#11 -657432022#9 -657432022#8 -657432022#7 -657432022#6 -657432022#5 25270512#4 25270512#5 25270512#6 -25270512#6" />
    <stop lane="-25123753#4_1" startPos="-1.00" endPos="-1.00" duration="1.00" friendlyPos="1" /><stop lane="-25123753#3_1" startPos="-1.00" endPos="-1.00" duration="1.00" friendlyPos="1" /><stop lane="25270512#4_1" startPos="-1.00" endPos="-1.00" duration="1.00" friendlyPos="1" /><stop lane="25270512#5_1" startPos="-1.00" endPos="-1.00" duration="1.00" friendlyPos="1" /><stop lane="25270512#6_1" startPos="-1.00" endPos="-1.00" duration="1.00" friendlyPos="1" /><stop lane="-25270512#6_1" startPos="-1.00" endPos="-1.00" duration="1.00" friendlyPos="1" /></vehicle>
    <vehicle id="moto137" type="moto_motorcycle" depart="21779.52" departLane="free" departSpeed="max" fromTaz="taz_0" toTaz="taz_1">
        <route edges="-25166364#0 -120486714#11 -120486714#10 -120486714#9 -120486714#8 -120486714#7 -120486714#6 -120486714#5 -120486714#4 -120486714#3 -120486714#2 -120486714#1 -120486714#0 -454844521 -454844520 -454271342#5 -454271342#4 -454271342#3 -454271342#2 -454271342#1 -454271342#0 -483203652#3 -483203652#2 -483203652#1 -483203652#0 -483203653 -483204482 -462336672 -657432022#14 -657432022#13 -657432022#12 -657432022#11 -657432022#9 -657432022#8 -657432022#7 -657432022#6 -657432022#5 -657432022#4 -657432022#3 -25381048#2 -25379416#5" />
    <stop lane="-25166364#0_1" startPos="-1.00" endPos="-1.00" duration="1.00" friendlyPos="1" /><stop lane="-25381048#2_1" startPos="-1.00" endPos="-1.00" duration="1.00" friendlyPos="1" /><stop lane="-25379416#5_1" startPos="-1.00" endPos="-1.00" duration="1.00" friendlyPos="1" /></vehicle>
    <vehicle id="moto73" type="moto_motorcycle" depart="21786.01" departLane="free" departSpeed="max" fromTaz="taz_0" toTaz="taz_1">
        <route edges="-25166457#1 -25166457#0 -120486714#14 -120486714#13 -120486714#12 -120486714#11 -120486714#10 -120486714#9 -120486714#8 -120486714#7 -120486714#6 -120486714#5 -120486714#4 -120486714#3 -120486714#2 -120486714#1 -120486714#0 -454844521 -454844520 -454271342#5 -454271342#4 -454271342#3 -454271342#2 -454271342#1 -454271342#0 -483203652#3 -483203652#2 -483203652#1 -483203652#0 -483203653 -483204482 -462336672 -657432022#14 -657432022#13 -657432022#12 -657432022#11 -657432022#9 -657432022#8 -657432022#7 -657432022#6 -657432022#5 25270512#4" />
    <stop lane="-25166457#1_1" startPos="-1.00" endPos="-1.00" duration="1.00" friendlyPos="1" /><stop lane="-25166457#0_1" startPos="-1.00" endPos="-1.00" duration="1.00" friendlyPos="1" /><stop lane="25270512#4_1" startPos="-1.00" endPos="-1.00" duration="1.00" friendlyPos="1" /></vehicle>
    <vehicle id="moto62" type="moto_motorcycle" depart="21807.72" departLane="free" departSpeed="max" fromTaz="taz_0" toTaz="taz_1">
        <route edges="25123753#4 -25123753#4 -25123753#3 -120486714#13 -120486714#12 -120486714#11 -120486714#10 -120486714#9 -120486714#8 -120486714#7 -120486714#6 -120486714#5 -120486714#4 -120486714#3 -120486714#2 -120486714#1 -120486714#0 -454844521 -454844520 -454271342#5 -454271342#4 -454271342#3 -454271342#2 -454271342#1 -454271342#0 -483203652#3 -483203652#2 -483203652#1 -483203652#0 -483203653 -483204482 -462336672 -657432022#14 -657432022#13 -657432022#12 -657432022#11 25379602 25510714#2 25510714#3 25510714#4" />
    <stop lane="25123753#4_1" startPos="-1.00" endPos="-1.00" duration="1.00" friendlyPos="1" /><stop lane="-25123753#4_1" startPos="-1.00" endPos="-1.00" duration="1.00" friendlyPos="1" /><stop lane="-25123753#3_1" startPos="-1.00" endPos="-1.00" duration="1.00" friendlyPos="1" /><stop lane="25379602_1" startPos="-1.00" endPos="-1.00" duration="1.00" friendlyPos="1" /><stop lane="25510714#2_1" startPos="-1.00" endPos="-1.00" duration="1.00" friendlyPos="1" /><stop lane="25510714#3_1" startPos="-1.00" endPos="-1.00" duration="1.00" friendlyPos="1" /><stop lane="25510714#4_1" startPos="-1.00" endPos="-1.00" duration="1.00" friendlyPos="1" /></vehicle>
    <vehicle id="moto68" type="moto_motorcycle" depart="21812.57" departLane="free" departSpeed="max" fromTaz="taz_0" toTaz="taz_1">
        <route edges="-25166289#3 25166289#3 25166289#4 -120486714#9 -120486714#8 -120486714#7 -120486714#6 -120486714#5 -120486714#4 -120486714#3 -120486714#2 -120486714#1 -120486714#0 -454844521 -454844520 -454271342#5 -454271342#4 -454271342#3 -454271342#2 -454271342#1 -454271342#0 -483203652#3 -483203652#2 -483203652#1 -483203652#0 -483203653 -483204482 -462336672 -657432022#14 -657432022#13 -657432022#12 -657432022#11 -657432022#9 -657432022#8 657432022#8" />
    <stop lane="-25166289#3_1" startPos="-1.00" endPos="-1.00" duration="1.00" friendlyPos="1" /><stop lane="25166289#3_1" startPos="-1.00" endPos="-1.00" duration="1.00" friendlyPos="1" /><stop lane="25166289#4_1" startPos="-1.00" endPos="-1.00" duration="1.00" friendlyPos="1" /></vehicle>
    <vehicle id="moto147" type="moto_motorcycle" depart="21814.16" departLane="free" departSpeed="max" fromTaz="taz_0" toTaz="taz_1">
        <route edges="25123754#0 -120486714#12 -120486714#11 -120486714#10 -120486714#9 -120486714#8 -120486714#7 -120486714#6 -120486714#5 -120486714#4 -120486714#3 -120486714#2 -120486714#1 -120486714#0 -454844521 -454844520 -454271342#5 -454271342#4 -454271342#3 -454271342#2 -454271342#1 -454271342#0 -483203652#3 -483203652#2 -483203652#1 -483203652#0 -483203653 -483204482 -462336672 -657432022#14 -657432022#13 -657432022#12 -657432022#11 25379602 25510714#2 25510714#3 25510714#4 25510714#5 25510714#6 25510714#7 25379708#0 25379708#1 25379708#2 25379757#0 25379757#1" />
    <stop lane="25123754#0_1" startPos="-1.00" endPos="-1.00" duration="1.00" friendlyPos="1" /><stop lane="25379602_1" startPos="-1.00" endPos="-1.00" duration="1.00" friendlyPos="1" /><stop lane="25510714#2_1" startPos="-1.00" endPos="-1.00" duration="1.00" friendlyPos="1" /><stop lane="25510714#3_1" startPos="-1.00" endPos="-1.00" duration="1.00" friendlyPos="1" /><stop lane="25510714#4_1" startPos="-1.00" endPos="-1.00" duration="1.00" friendlyPos="1" /><stop lane="25510714#5_1" startPos="-1.00" endPos="-1.00" duration="1.00" friendlyPos="1" /><stop lane="25510714#6_1" startPos="-1.00" endPos="-1.00" duration="1.00" friendlyPos="1" /><stop lane="25510714#7_1" startPos="-1.00" endPos="-1.00" duration="1.00" friendlyPos="1" /><stop lane="25379708#0_1" startPos="-1.00" endPos="-1.00" duration="1.00" friendlyPos="1" /><stop lane="25379708#1_1" startPos="-1.00" endPos="-1.00" duration="1.00" friendlyPos="1" /><stop lane="25379708#2_1" startPos="-1.00" endPos="-1.00" duration="1.00" friendlyPos="1" /><stop lane="25379757#0_1" startPos="-1.00" endPos="-1.00" duration="1.00" friendlyPos="1" /><stop lane="25379757#1_1" startPos="-1.00" endPos="-1.00" duration="1.00" friendlyPos="1" /></vehicle>
    <vehicle id="moto27" type="moto_motorcycle" depart="21838.38" departLane="free" departSpeed="max" fromTaz="taz_0" toTaz="taz_1">
        <route edges="120486714#11 -120486714#11 -120486714#10 -120486714#9 -120486714#8 -120486714#7 -120486714#6 -120486714#5 -120486714#4 -120486714#3 -120486714#2 -120486714#1 -120486714#0 -454844521 -454844520 -454271342#5 -454271342#4 -454271342#3 -454271342#2 -454271342#1 -454271342#0 -483203652#3 -483203652#2 -483203652#1 -483203652#0 -483203653 -483204482 -462336672 -657432022#14 -657432022#13 -657432022#12 -657432022#11 -657432022#9 -657432022#8 -657432022#7 -657432022#6 -25270921#4 -25270921#3 -47652955" />
    <stop lane="-25270921#4_1" startPos="-1.00" endPos="-1.00" duration="1.00" friendlyPos="1" /><stop lane="-25270921#3_1" startPos="-1.00" endPos="-1.00" duration="1.00" friendlyPos="1" /><stop lane="-47652955_1" startPos="-1.00" endPos="-1.00" duration="1.00" friendlyPos="1" /></vehicle>
    <vehicle id="moto98" type="moto_motorcycle" depart="21922.82" departLane="free" departSpeed="max" fromTaz="taz_0" toTaz="taz_1">
        <route edges="-499060510#2 -499060510#0 -361991757#12 -25123763#3 -120486714#6 -120486714#5 -120486714#4 -120486714#3 -120486714#2 -120486714#1 -120486714#0 -454844521 -454844520 -454271342#5 -454271342#4 -454271342#3 -454271342#2 -454271342#1 -454271342#0 -483203652#3 -483203652#2 -483203652#1 -483203652#0 -483203653 -483204482 -462336672 -657432022#14 -657432022#13 -657432022#12 -657432022#11 -657432022#9 -657432022#8 -657432022#7 -657432022#6 -25270921#4" />
    <stop lane="-25270921#4_1" startPos="-1.00" endPos="-1.00" duration="1.00" friendlyPos="1" /></vehicle>
    <vehicle id="moto70" type="moto_motorcycle" depart="21925.69" departLane="free" departSpeed="max" fromTaz="taz_0" toTaz="taz_1">
        <route edges="-25166364#0 -120486714#11 -120486714#10 -120486714#9 -120486714#8 -120486714#7 -120486714#6 -120486714#5 -120486714#4 -120486714#3 -120486714#2 -120486714#1 -120486714#0 -454844521 -454844520 -454271342#5 -454271342#4 -454271342#3 -454271342#2 -454271342#1 -454271342#0 -483203652#3 -483203652#2 -483203652#1 -483203652#0 -483203653 -483204482 -462336672 -657432022#14 -657432022#13 -657432022#12 -657432022#11 -657432022#9 -25271538#2 25271538#2" />
    <stop lane="-25166364#0_1" startPos="-1.00" endPos="-1.00" duration="1.00" friendlyPos="1" /><stop lane="-25271538#2_1" startPos="-1.00" endPos="-1.00" duration="1.00" friendlyPos="1" /><stop lane="25271538#2_1" startPos="-1.00" endPos="-1.00" duration="1.00" friendlyPos="1" /></vehicle>
    <vehicle id="moto50" type="moto_motorcycle" depart="21963.29" departLane="free" departSpeed="max" fromTaz="taz_0" toTaz="taz_1">
        <route edges="499060510#8 -499060510#8 -499060510#7 -499060510#6 -499060510#5 -499060510#4 -499060510#3 -499060510#2 -499060510#0 -361991757#12 -25123763#3 -120486714#6 -120486714#5 -120486714#4 -120486714#3 -120486714#2 -120486714#1 -120486714#0 -454844521 -454844520 -454271342#5 -454271342#4 -454271342#3 -454271342#2 -454271342#1 -454271342#0 -483203652#3 -483203652#2 -483203652#1 -483203652#0 -483203653 -483204482 -462336672 -657432022#14 -657432022#13 -657432022#12 -657432022#11 25379602 25510714#2 25510714#3 25510714#4 25510714#5 25510714#6 25510714#7 25510714#8" />
    <stop lane="25379602_1" startPos="-1.00" endPos="-1.00" duration="1.00" friendlyPos="1" /><stop lane="25510714#2_1" startPos="-1.00" endPos="-1.00" duration="1.00" friendlyPos="1" /><stop lane="25510714#3_1" startPos="-1.00" endPos="-1.00" duration="1.00" friendlyPos="1" /><stop lane="25510714#4_1" startPos="-1.00" endPos="-1.00" duration="1.00" friendlyPos="1" /><stop lane="25510714#5_1" startPos="-1.00" endPos="-1.00" duration="1.00" friendlyPos="1" /><stop lane="25510714#6_1" startPos="-1.00" endPos="-1.00" duration="1.00" friendlyPos="1" /><stop lane="25510714#7_1" startPos="-1.00" endPos="-1.00" duration="1.00" friendlyPos="1" /><stop lane="25510714#8_1" startPos="-1.00" endPos="-1.00" duration="1.00" friendlyPos="1" /></vehicle>
    <vehicle id="moto87" type="moto_motorcycle" depart="21963.53" departLane="free" departSpeed="max" fromTaz="taz_0" toTaz="taz_1">
        <route edges="-120486714#11 -120486714#10 -120486714#9 -120486714#8 -120486714#7 -120486714#6 -120486714#5 -120486714#4 -120486714#3 -120486714#2 -120486714#1 -120486714#0 -454844521 -454844520 -454271342#5 -454271342#4 -454271342#3 -454271342#2 -454271342#1 -454271342#0 -483203652#3 -483203652#2 -483203652#1 -483203652#0 -483203653 -483204482 -462336672 -657432022#14 -657432022#13 -657432022#12 -657432022#11 -657432022#9 -657432022#8 -657432022#7 -657432022#6 -25270921#4 435124424 -435124424" />
    <stop lane="-25270921#4_1" startPos="-1.00" endPos="-1.00" duration="1.00" friendlyPos="1" /><stop lane="435124424_1" startPos="-1.00" endPos="-1.00" duration="1.00" friendlyPos="1" /><stop lane="-435124424_1" startPos="-1.00" endPos="-1.00" duration="1.00" friendlyPos="1" /></vehicle>
    <vehicle id="moto65" type="moto_motorcycle" depart="21986.17" departLane="free" departSpeed="max" fromTaz="taz_0" toTaz="taz_1">
        <route edges="-25123753#1 25123753#1 25123753#2 -120486714#13 -120486714#12 -120486714#11 -120486714#10 -120486714#9 -120486714#8 -120486714#7 -120486714#6 -120486714#5 -120486714#4 -120486714#3 -120486714#2 -120486714#1 -120486714#0 -454844521 -454844520 -454271342#5 -454271342#4 -454271342#3 -454271342#2 -454271342#1 -454271342#0 -483203652#3 -483203652#2 -483203652#1 -483203652#0 -483203653 -483204482 -462336672 -657432022#14 -657432022#13 -657432022#12 -657432022#11 -657432022#9 -657432022#8 -657432022#7 -657432022#6 -657432022#5 25270512#4 25270512#5" />
    <stop lane="-25123753#1_1" startPos="-1.00" endPos="-1.00" duration="1.00" friendlyPos="1" /><stop lane="25123753#1_1" startPos="-1.00" endPos="-1.00" duration="1.00" friendlyPos="1" /><stop lane="25123753#2_1" startPos="-1.00" endPos="-1.00" duration="1.00" friendlyPos="1" /><stop lane="25270512#4_1" startPos="-1.00" endPos="-1.00" duration="1.00" friendlyPos="1" /><stop lane="25270512#5_1" startPos="-1.00" endPos="-1.00" duration="1.00" friendlyPos="1" /></vehicle>
    <vehicle id="moto95" type="moto_motorcycle" depart="21997.95" departLane="free" departSpeed="max" fromTaz="taz_0" toTaz="taz_1">
        <route edges="-499060510#3 -499060510#2 -499060510#0 -361991757#12 -361991757#11 -361991757#10 -361991757#9 -361991757#8 -361991757#7 -361991757#6 -361991757#5 -361991757#4 -361991757#3 -361991757#2 -361991757#1 -361991757#0 -462576267#9 -462576267#8 -462576267#7 -462576267#6 -462576267#5 -462576267#4 -462576267#3 -462576267#2 -462576267#1 -454849472#7 -454849472#5 -454849472#4 -454849472#3 -454849472#2 -454849472#1 -454849472#0 -454189810#1 -454189810#0 25270884#0 657432022#7" />
    <stop lane="25270884#0_1" startPos="-1.00" endPos="-1.00" duration="1.00" friendlyPos="1" /></vehicle>
    <vehicle id="moto33" type="moto_motorcycle" depart="22023.68" departLane="free" departSpeed="max" fromTaz="taz_0" toTaz="taz_1">
        <route edges="25166360 -120486714#11 -120486714#10 -120486714#9 -120486714#8 -120486714#7 -120486714#6 -120486714#5 -120486714#4 -120486714#3 -120486714#2 -120486714#1 -120486714#0 -454844521 -454844520 -454271342#5 -454271342#4 -454271342#3 -454271342#2 -454271342#1 -454271342#0 -483203652#3 -483203652#2 -483203652#1 -483203652#0 -483203653 -483204482 -462336672 -657432022#14 -657432022#13 -657432022#12 -657432022#11 -657432022#9 -25271538#2" />
    <stop lane="25166360_1" startPos="-1.00" endPos="-1.00" duration="1.00" friendlyPos="1" /><stop lane="-25271538#2_1" startPos="-1.00" endPos="-1.00" duration="1.00" friendlyPos="1" /></vehicle>
    <vehicle id="moto30" type="moto_motorcycle" depart="22033.87" departLane="free" departSpeed="max" fromTaz="taz_0" toTaz="taz_1">
        <route edges="120486723 -120486723 -120486714#8 -120486714#7 -120486714#6 -120486714#5 -120486714#4 -120486714#3 -120486714#2 -120486714#1 -120486714#0 -454844521 -454844520 -454271342#5 -454271342#4 -454271342#3 -454271342#2 -454271342#1 -454271342#0 -483203652#3 -483203652#2 -483203652#1 -483203652#0 -483203653 -483204482 -462336672 -657432022#14 -657432022#13 -657432022#12 -657432022#11 -657432022#9" />
    <stop lane="120486723_1" startPos="-1.00" endPos="-1.00" duration="1.00" friendlyPos="1" /><stop lane="-120486723_1" startPos="-1.00" endPos="-1.00" duration="1.00" friendlyPos="1" /></vehicle>
    <vehicle id="moto1" type="moto_motorcycle" depart="22076.94" departLane="free" departSpeed="max" fromTaz="taz_0" toTaz="taz_1">
        <route edges="-120486714#14 -120486714#13 -120486714#12 -120486714#11 -120486714#10 -120486714#9 -120486714#8 -120486714#7 -120486714#6 -120486714#5 -120486714#4 -120486714#3 -120486714#2 -120486714#1 -120486714#0 -454844521 -454844520 -454271342#5 -454271342#4 -454271342#3 -454271342#2 -454271342#1 -454271342#0 -483203652#3 -483203652#2 -483203652#1 -483203652#0 -483203653 -483204482 -462336672 -657432022#14 -657432022#13 -657432022#12 -657432022#11 -657432022#9 -657432022#8 -657432022#7 -657432022#6 -657432022#5 25270512#4 25270512#5 25270512#6 25379995#0 25379995#1 25379995#2" />
    <stop lane="25270512#4_1" startPos="-1.00" endPos="-1.00" duration="1.00" friendlyPos="1" /><stop lane="25270512#5_1" startPos="-1.00" endPos="-1.00" duration="1.00" friendlyPos="1" /><stop lane="25270512#6_1" startPos="-1.00" endPos="-1.00" duration="1.00" friendlyPos="1" /><stop lane="25379995#0_1" startPos="-1.00" endPos="-1.00" duration="1.00" friendlyPos="1" /><stop lane="25379995#1_1" startPos="-1.00" endPos="-1.00" duration="1.00" friendlyPos="1" /><stop lane="25379995#2_1" startPos="-1.00" endPos="-1.00" duration="1.00" friendlyPos="1" /></vehicle>
    <vehicle id="moto102" type="moto_motorcycle" depart="22181.56" departLane="free" departSpeed="max" fromTaz="taz_0" toTaz="taz_1">
        <route edges="25123753#1 25123753#2 -120486714#13 -120486714#12 -120486714#11 -120486714#10 -120486714#9 -120486714#8 -120486714#7 -120486714#6 -120486714#5 -120486714#4 -120486714#3 -120486714#2 -120486714#1 -120486714#0 -454844521 -454844520 -454271342#5 -454271342#4 -454271342#3 -454271342#2 -454271342#1 -454271342#0 -483203652#3 -483203652#2 -483203652#1 -483203652#0 -483203653 -483204482 -462336672 -657432022#14 -657432022#13 -657432022#12 -657432022#11 25379602 25510714#2 25510714#3 25510714#4 25510714#5 25510714#6 25510714#7 25379708#0 25379708#1 25379708#2 25379708#3 25379708#4 25379708#5 25379708#6" />
    <stop lane="25123753#1_1" startPos="-1.00" endPos="-1.00" duration="1.00" friendlyPos="1" /><stop lane="25123753#2_1" startPos="-1.00" endPos="-1.00" duration="1.00" friendlyPos="1" /><stop lane="25379602_1" startPos="-1.00" endPos="-1.00" duration="1.00" friendlyPos="1" /><stop lane="25510714#2_1" startPos="-1.00" endPos="-1.00" duration="1.00" friendlyPos="1" /><stop lane="25510714#3_1" startPos="-1.00" endPos="-1.00" duration="1.00" friendlyPos="1" /><stop lane="25510714#4_1" startPos="-1.00" endPos="-1.00" duration="1.00" friendlyPos="1" /><stop lane="25510714#5_1" startPos="-1.00" endPos="-1.00" duration="1.00" friendlyPos="1" /><stop lane="25510714#6_1" startPos="-1.00" endPos="-1.00" duration="1.00" friendlyPos="1" /><stop lane="25510714#7_1" startPos="-1.00" endPos="-1.00" duration="1.00" friendlyPos="1" /><stop lane="25379708#0_1" startPos="-1.00" endPos="-1.00" duration="1.00" friendlyPos="1" /><stop lane="25379708#1_1" startPos="-1.00" endPos="-1.00" duration="1.00" friendlyPos="1" /><stop lane="25379708#2_1" startPos="-1.00" endPos="-1.00" duration="1.00" friendlyPos="1" /><stop lane="25379708#3_1" startPos="-1.00" endPos="-1.00" duration="1.00" friendlyPos="1" /><stop lane="25379708#4_1" startPos="-1.00" endPos="-1.00" duration="1.00" friendlyPos="1" /><stop lane="25379708#5_1" startPos="-1.00" endPos="-1.00" duration="1.00" friendlyPos="1" /><stop lane="25379708#6_1" startPos="-1.00" endPos="-1.00" duration="1.00" friendlyPos="1" /></vehicle>
    <vehicle id="moto143" type="moto_motorcycle" depart="22192.10" departLane="free" departSpeed="max" fromTaz="taz_0" toTaz="taz_1">
        <route edges="499060510#6 -25123753#3 -120486714#13 -120486714#12 -120486714#11 -120486714#10 -120486714#9 -120486714#8 -120486714#7 -120486714#6 -120486714#5 -120486714#4 -120486714#3 -120486714#2 -120486714#1 -120486714#0 -454844521 -454844520 -454271342#5 -454271342#4 -454271342#3 -454271342#2 -454271342#1 -454271342#0 -483203652#3 -483203652#2 -483203652#1 -483203652#0 -483203653 -483204482 -462336672 -657432022#14 -657432022#13 -657432022#12 -657432022#11 -657432022#9 -657432022#8 -657432022#7 -657432022#6 25270921#5" />
    <stop lane="-25123753#3_1" startPos="-1.00" endPos="-1.00" duration="1.00" friendlyPos="1" /><stop lane="25270921#5_1" startPos="-1.00" endPos="-1.00" duration="1.00" friendlyPos="1" /></vehicle>
    <vehicle id="moto77" type="moto_motorcycle" depart="22217.57" departLane="free" departSpeed="max" fromTaz="taz_0" toTaz="taz_1">
        <route edges="-120486714#12 -120486714#11 -120486714#10 -120486714#9 -120486714#8 -120486714#7 -120486714#6 -120486714#5 -120486714#4 -120486714#3 -120486714#2 -120486714#1 -120486714#0 -454844521 -454844520 -454271342#5 -454271342#4 -454271342#3 -454271342#2 -454271342#1 -454271342#0 -483203652#3 -483203652#2 -483203652#1 -483203652#0 -483203653 -483204482 -462336672 -657432022#14 -657432022#13 -657432022#12 -657432022#11 -657432022#9 -657432022#8 -657432022#7 -657432022#6 -657432022#5 25270512#4 25270512#5 25270512#6 -25270512#6" />
    <stop lane="25270512#4_1" startPos="-1.00" endPos="-1.00" duration="1.00" friendlyPos="1" /><stop lane="25270512#5_1" startPos="-1.00" endPos="-1.00" duration="1.00" friendlyPos="1" /><stop lane="25270512#6_1" startPos="-1.00" endPos="-1.00" duration="1.00" friendlyPos="1" /><stop lane="-25270512#6_1" startPos="-1.00" endPos="-1.00" duration="1.00" friendlyPos="1" /></vehicle>
    <vehicle id="moto84" type="moto_motorcycle" depart="22269.55" departLane="free" departSpeed="max" fromTaz="taz_0" toTaz="taz_1">
        <route edges="-499060510#2 -499060510#0 -361991757#12 -25123763#3 -120486714#6 -120486714#5 -120486714#4 -120486714#3 -120486714#2 -120486714#1 -120486714#0 -454844521 -454844520 -454271342#5 -454271342#4 -454271342#3 -454271342#2 -454271342#1 -454271342#0 -483203652#3 -483203652#2 -483203652#1 -483203652#0 -483203653 -483204482 -462336672 -657432022#14 -657432022#13 -657432022#12 -657432022#11 25379602 25510714#2 25510714#3 25510714#4 25510714#5 25510714#6 25510714#7 25379708#0 25379708#1" />
    <stop lane="25379602_1" startPos="-1.00" endPos="-1.00" duration="1.00" friendlyPos="1" /><stop lane="25510714#2_1" startPos="-1.00" endPos="-1.00" duration="1.00" friendlyPos="1" /><stop lane="25510714#3_1" startPos="-1.00" endPos="-1.00" duration="1.00" friendlyPos="1" /><stop lane="25510714#4_1" startPos="-1.00" endPos="-1.00" duration="1.00" friendlyPos="1" /><stop lane="25510714#5_1" startPos="-1.00" endPos="-1.00" duration="1.00" friendlyPos="1" /><stop lane="25510714#6_1" startPos="-1.00" endPos="-1.00" duration="1.00" friendlyPos="1" /><stop lane="25510714#7_1" startPos="-1.00" endPos="-1.00" duration="1.00" friendlyPos="1" /><stop lane="25379708#0_1" startPos="-1.00" endPos="-1.00" duration="1.00" friendlyPos="1" /><stop lane="25379708#1_1" startPos="-1.00" endPos="-1.00" duration="1.00" friendlyPos="1" /></vehicle>
    <vehicle id="moto15" type="moto_motorcycle" depart="22274.42" departLane="free" departSpeed="max" fromTaz="taz_0" toTaz="taz_1">