<?xml version="1.0" encoding="UTF-8"?>

<!-- generated on 09/03/20 14:18:17 by Eclipse SUMO duarouter Version 1.6.0
<configuration xmlns:xsi="http://www.w3.org/2001/XMLSchema-instance" xsi:noNamespaceSchemaLocation="http://sumo.dlr.de/xsd/duarouterConfiguration.xsd">

    <input>
        <net-file value="C:\Users\epicb\Documents\GitHub\SumoLachineArea\Montreal/montreal.net.xml"/>
        <route-files value="C:\Users\epicb\Documents\GitHub\SumoLachineArea\Montreal/Trips/montreal.pedestrian.trips.xml"/>
    </input>

    <output>
        <output-file value="C:\Users\epicb\Documents\GitHub\SumoLachineArea\Montreal/Trips/montreal.pedestrian.rou.xml"/>
        <alternatives-output value="C:\Users\epicb\Documents\GitHub\SumoLachineArea\Montreal/Trips/montreal.pedestrian.rou.alt.xml"/>
    </output>

    <time>
        <begin value="0"/>
        <end value="360.0"/>
    </time>

    <report>
        <no-warnings value="true"/>
        <ignore-errors value="true"/>
        <no-step-log value="true"/>
    </report>

</configuration>
-->

<routes xmlns:xsi="http://www.w3.org/2001/XMLSchema-instance" xsi:noNamespaceSchemaLocation="http://sumo.dlr.de/xsd/routes_file.xsd">
    <vType id="ped_pedestrian" vClass="pedestrian"/>
    <person id="ped0" type="ped_pedestrian" depart="0.00">
        <walk edges="-453720559#0 -453720561#2 -453720560#1 596233358 -453938248#3 -453938248#2 -453938248#1 -20902860#3 -20902860#2 20902860#1"/>
    </person>
    <person id="ped1" type="ped_pedestrian" depart="1.00">
        <walk edges="-329384199#0 -728802373 -460536607 -460541668#1 -460541668#0 -460541669 -460541670 86982615#0 86982615#1 86982615#2 233469911#4 233469911#3 233469911#2 233469913 86982478#0 -393652870#10 -393652870#9 817950736#3 817950736#4 817950736#5 817950736#6 46699756 46699754#3 46699754#2 46699754#1 46699754#0 46699748 460520074 -101122968#1 -101122970#0 -101122970#1 453755821#5 20447054#4 20447054#3 20447054#2 20447054#1 20447054#0 -461358563 -461358561#0 461358561#1 -461358561#2 -46699732#0 -46699732#1 -20213160#3 -113746398#0 -113746399#2 113746394"/>
    </person>
    <person id="ped2" type="ped_pedestrian" depart="2.00">
        <walk edges="164818751#9 -512985940#0 26528771 -164758133#1 -164759174#3 164759174#4 -164759174#5 -13357920 -45530563 -673471346 -452039036 -452039034 -452039033"/>
    </person>
    <person id="ped3" type="ped_pedestrian" depart="3.00">
        <walk edges="785392923#2 -785392922#3 -785392922#2 -785392922#1 -785392922#0 682295365#0 682295365#1 682295365#2 682295365#3 14060959#0 14060959#1 14060959#2 14060959#3 14060959#4 8290407#0 8290407#1 8290407#2 8290407#3 8290407#4 8292655#0 792370818#1 792370818#2 369279605 369279606#0 369279606#1 -468672429#7 -468672429#8 -468672429#10 -468672428 -722563870#94 -722563870#93 -722563870#92 -722563870#91 -722563870#90 -722563870#89 -722563870#88 -722563870#87 -722563870#86 -722563870#85 -722563870#84 -722563870#83 -722563870#82 -722563870#81 -722563870#80 -722563870#79 -722563870#78 -722563870#77 -722563870#76 -722563870#75 -722563870#74 -722563870#73 -722563870#72 -722563870#71 -722563870#70 -722563870#69 -722563870#68 722563870#67 -722563870#66 -722563870#65 -722563870#64 -722563870#63 -722563870#62 258141330#0"/>
    </person>
    <person id="ped4" type="ped_pedestrian" depart="4.00">
        <walk edges="208632692 -208632690#0 -208632691#1 -29294767#7 -29294767#8 -29294767#9 -29294767#10 27610112#0 547311949#1 28756689#24 20998019#0 20998019#1 -208555764#6 -208555764#5 -208555764#4 -208555764#3 -208555764#2 208555764#1 23034888#4 -208421674#13 -208421674#12 -208421674#11 -208421674#10 -208421674#9 -208421674#8 -208421674#7 -208421674#6 -208421674#5 -208421674#4 -208421674#3 -208421674#2 -208421674#1 -208421677#0 -208421677#1 24457407#2 24457407#3 24457407#4 24457407#5 -453997409 -500767724#1 500767724#0 537239215#2 537239215#1"/>
    </person>
    <person id="ped5" type="ped_pedestrian" depart="5.00">
        <walk edges="-699201226#0 -699201225#1 -699201225#0 -86565469#0 -480283437 -490695980 490695979 726172725 692642798 545129724 429919713#0 429919713#1 429919713#2 429919713#3 48432058#2 699202225#0"/>
    </person>
    <person id="ped6" type="ped_pedestrian" depart="6.00">
        <walk edges="474846527 -474846526#0 -474846526#1 -474849280 22781804#0 -474852887 -474852888 -474852884"/>
    </person>
    <person id="ped7" type="ped_pedestrian" depart="7.00">
        <walk edges="27205976#0 -27205977#8 -27205977#7 -27205977#6 -27205977#5 -27205977#4 -27205977#3 -27205977#2 -27205977#1 -549599888#0 -27205979#0 -27205979#1 452083141#1 452083141#0 4847978#9 4847978#8 4847978#7 4847978#6 -165096622#1 411196562#4 411196562#3 411196562#2 411196562#1 411196563 411196564 411196560#1 411196561 8154117#0 8154117#1 732652170#1 732652170#0 732652167#1 732652167#2 732652167#3"/>
    </person>
    <person id="ped9" type="ped_pedestrian" depart="9.00">
        <walk edges="-451902774#4 474806499 451911442#2 451911442#1 451911442#0 451911436 474596231 451915386#2 451915386#1 451915386#0 474608653 451915378 451921074#1 451921074#0 474611752 451921072 452083151#4 452083151#3 452083151#2 452083151#1 452083151#0 452083150 164759173#5 164759173#4 164759173#3 164759173#2 164759173#1 164759173#0 452083388#1 740263124#6 740263124#5 740263124#4 48421829#0 48421827 48421816#2 48421816#1 376092503 -86042357#5 -677513816#6 -677513816#5 -677513816#4 -677513816#3 -677513816#2 -677513822"/>
    </person>
    <person id="ped12" type="ped_pedestrian" depart="12.00">
        <walk edges="376479646#2 376479646#3 376479646#4 376479646#5 376479646#6 376479646#7 376479646#8 376479646#9 376479646#10 376479646#11 376479646#12 376479646#13 376479646#14 376479646#15 330720150#0 188991335 4911698#1 4911698#0"/>
    </person>
    <person id="ped13" type="ped_pedestrian" depart="13.00">
        <walk edges="-22894761#2 -22894761#1 -22894761#0 -22894759#3 -22894759#2 -22894759#1 -109103197#1 -370735526#5 -370735526#6 -370735526#7 -370735526#8 -370735526#9 326447592#0 326447592#1 326447592#2 465627005#1 465627005#0 -462064449#1 -462064449#0 -449661665#1 -462064443"/>
    </person>
    <person id="ped14" type="ped_pedestrian" depart="14.00">
        <walk edges="171582335#1 171582339#1 171582345#0 171582336 -722002354#4 -722002354#3 -343515997#3 -343515997#2 -343515997#1 -343515997#0 722043616 727040828#1 727040828#0 46700770 13685234#5 -333428734#3 -333428734#2 -333428734#1 333428735#0 -333428735#1 455090783 -455090781 -464941127 -464941128 -480178179#5 -480178179#4 -480178179#3"/>
    </person>
    <person id="ped15" type="ped_pedestrian" depart="15.00">
        <walk edges="-165214767#4 385916360 453975594 456385180 456385181 507342062#1 -507342062#0 164831920#1 164831920#0 456385182#1 456385182#0 456383141#2 456383141#1 456383141#0 456383139 374861911#2 374861911#1 374861911#0 606290698 452912053#1 452912053#0 423145128 669996718 367158060 367158058 380144785 671337357#1 -671337357#0 367863238 367863239 520337804 640352537#0 640352537#1 669571429 669571428 -759689085 -759685037 -697402950 -165217788 452093925#2 452093925#1 452093925#0 452093921 -452093927 452093924 452093926#0 546131881 -129039677#8 -129039677#7"/>
    </person>
    <person id="ped16" type="ped_pedestrian" depart="16.00">
        <walk edges="-22915743#0 -22915742#2 22915742#1 -22915741#3 -22915741#2 -59434217#0 -452647844 -468723897 131828402#3 -131828402#2 -131828413#8 -131828413#7 -131828413#6 -131828413#5 -131828413#4 -131828413#3 -131828413#2 -131828413#1 -131828413#0 -131828419#0 -131828378#0 -131828378#1 -131828378#2 -131828378#3 -131828378#4 -131828378#5 -131828378#6 -131828383"/>
    </person>
    <person id="ped17" type="ped_pedestrian" depart="17.00">
        <walk edges="-27310981#3 -27333688#4 -27333688#3 -27333688#2 -27333688#1 -27333688#0 -51744522#0 -51744523#0 -51744523#1 -51744523#2 -51744523#3 -27333839#2 -28755558#21 31016142#5 -51744475#2 -51744478 -51744473#3 46686681#4 46686681#5 46686681#6 46686681#7 46686681#8 -152517083 -395619067#9 -395619067#8 -395619067#7 -395619067#6 -395619067#5 -395619067#4 -395619067#3 -29145932#3 -29145932#4 812985511#1 812668259#1 -812688635#1 -812688635#0 -26663586#8 -26663586#7 -26663586#6 -427700272#0"/>
    </person>
    <person id="ped18" type="ped_pedestrian" depart="18.00">
        <walk edges="452477552 165087298#5 165087298#4 165087298#3 165087298#2 -810843011#0 -371652319#13 -371652319#12 -371652319#11 -371652319#10 -371652319#9 -371652319#8 -371652319#7 -371652319#6 -371652319#5 -371652319#4 -371652319#3 -371652319#2 -371652319#1 371652319#0"/>
    </person>
    <person id="ped19" type="ped_pedestrian" depart="19.00">
        <walk edges="455685930#1 455685930#0 455685928 452023894#4 452023894#3 -37814022#0 165096597#2 798781899#9 798781899#0 798781899#1 20290578#1 798781896#0 41829537#2 41829537#3 41829537#4 41829537#5 41829537#6 41829537#7 41829537#8 41829536#10 41829536#9 41829536#8 41829536#7 41829536#6 41829536#5 41829536#4 41829536#3 41829536#2 41829536#1 41829536#0 229239109#2 -199317476#0 -199317476#1 199317476#2 199317476#3 -199317476#4 -20293968#8 160843723#1 160843723#2 160843723#3 561019094 -727865487#0 -727865487#1 -727865488#0 -727865488#1 184778970#0 184778970#1"/>
    </person>
    <person id="ped20" type="ped_pedestrian" depart="20.00">
        <walk edges="-700832394#2 -700832394#1 -700832394#0 -700832393#1 -700832393#0 700832406#9 -700832406#10 700832406#11 -463406699#2 -463406699#1 -463406699#0 -23027137#4 -23027137#3 41350669#0 41350669#1 41350669#2 41350669#3 41350669#4 41350669#5 -463419859#1 -119151371#6 -119151371#5 -119151371#4 -119151371#3 -119151371#2 -119151371#1 119151371#0 20113495#0 20113495#1 -121707724 20113497#4 20113497#3 20113497#2 -158890692#8 -166902179#0 -166902178"/>
    </person>
    <person id="ped22" type="ped_pedestrian" depart="22.00">
        <walk edges="164974775#8 -452676134#4 -562474372 562474376 562474375 -562474371 -452676129 -452443996 -452438854 -463679385#1 -463679385#0 -463679390 -463679393 -463681975 -408872868#3 -408872868#2 -408872868#1 -408872868#0 -465153009#1 -465153009#0 -465153008 465153011#0 465153011#1 46700762#0 46700762#1 46700762#2 -164974766#8 -164974766#7 -164974766#6 331247512 67832302#2 67832303#0 67832304#5 67832304#6 67832304#7 -19936512#2 46700749 -19936420#5 -27628478#1 -27628493 331247510 -41565906#0 561695925"/>
    </person>
    <person id="ped23" type="ped_pedestrian" depart="23.00">
        <walk edges="17289069#14 17289069#15 17289069#16 17289069#17 683409562#0 683409562#1 12722940 -12722653#7 -12722653#6 -12722653#5 -12722653#4 -12722653#3 -12722653#2 -12722653#1 -12722653#0 -722563874#2 -722563874#1 -722563874#0 -722563871#3 -722563871#2 -722563871#1 722563872#2 722563872#1 722563872#0 -722563870#110 -722563870#0 -722563870#1 -468672433#2"/>
    </person>
    <person id="ped24" type="ped_pedestrian" depart="24.00">
        <walk edges="-11857316#1 -11857316#0 -11857315#1 376173352 -12317867#3 -12319052 12318311#0 -12318311#1 -12318311#2 -12318311#3 -366278133 366278235"/>
    </person>
    <person id="ped25" type="ped_pedestrian" depart="25.00">
        <walk edges="608678632#1 -608678632#2 -608678632#3 -452687681#5 -452687681#6 -436524634 -481036658 -436451787#3 -533505830#1 -481036657#0 -481036662#1 -481036662#0 802034441#0 802034441#1 802034441#2 -40662356#0 27208207#1 481039766 481039762#2 481039762#1 481039764 39821682#9 39821682#8 39821682#7 39821682#6 39821682#5 39821682#4 39821682#3 39821682#2 39821682#1 39821682#0 438953162#1 -398451184#0 -398451184#1 435267149#1"/>
    </person>
    <person id="ped26" type="ped_pedestrian" depart="26.00">
        <walk edges="20221692#4 20221692#3 20221692#2 20221692#1 20221692#0 37636653#1 37636653#0 461359178 461359181 461359182 164974771 393858373#0 393858373#1 393858373#2 22894866#0 22894866#1 22894866#2 22894866#3 22894866#4 461375259#0 461375259#1 -587461571 461375257#1 461375257#0 22894534#4"/>
    </person>
    <person id="ped27" type="ped_pedestrian" depart="27.00">
        <walk edges="-171673145#0 -171673145#1 -792484722#0 -48114941#0 -48114941#1 -238525037#11 -238525037#10 -238525037#9 -238525037#8 -238525037#7 -238525037#6 -238525037#5 -238525037#4 -238525037#3 -238525037#2 -238525037#1 -238525037#0 -129039667#25 -129039667#24 -129039667#23 -129039667#22 -129039667#21 -129039667#20 -129039667#19 -129039667#18 -129039667#17 -129039667#16 -129039667#15 -129039667#14 -129039667#13 -129039667#12 -129039667#11 -129039667#10 -129039667#9 -129039667#8 -129039667#7 129039667#6 -129039667#5 -129039667#4 -129039667#3 -129039667#2 -129039667#1 -129039667#0 -238525037#60 -129039804#1 -129039666#6 -129039666#7 -129039666#1 -129039801#1 -129039801#0 452093926#5 452083387#0 740263124#5 740263124#4 48421829#0 48421827 48421816#2 -48423273 -453529000 -680917018#0 -680917018#1 -680917018#2 -680917018#3 -740263120#0 -740263120#1 -740263120#2 -740263120#3 -740263120#4 -740263120#5"/>
    </person>
    <person id="ped28" type="ped_pedestrian" depart="28.00">
        <walk edges="27208893#1 -27208893#0 -27208446#10 27208446#9 -27208446#8 -27208446#7 27208446#6 -27208446#5 27208446#4 -27208446#3 -27208446#2 -27208446#1 -27208446#0 466594340#1 466594340#0 219060907#7 435256341#1 435256341#0 -435256343#5 -435256343#4 -435256343#3 -435256343#2 -435256343#1 -435256343#0 435256349#0"/>
    </person>
    <person id="ped29" type="ped_pedestrian" depart="29.00">
        <walk edges="714752390 397012408#1 397012408#0 399715000#1 399715000#0 397322306#1 397322306#0 399715001 397322130#1 397322130#0"/>
    </person>
    <person id="ped30" type="ped_pedestrian" depart="30.00">
        <walk edges="258141326#2 -258141326#3 -258141326#4 -258141326#5 -722563870#63 -722563870#64 -722563870#65 -722563870#66 722563870#67 -722563870#68 -722563870#69 -722563870#70 -722563870#71 -722563870#72 -722563870#73 -722563870#74 -722563870#75 -722563870#76 -722563870#77 -722563870#78 -722563870#79 -722563870#80 -722563870#81 -722563870#82 -722563870#83 -722563870#84 -722563870#85 -722563870#86 -722563870#87 -722563870#88 -722563870#89 -722563870#90 -722563870#91 -722563870#92 -722563870#93 -722563870#94 -468672428 -468672429#10 -468672429#8 -468672429#7 369279606#1 369279606#0 369279605 792370818#2 792370818#1 8292655#1 455092414 184759293 455091694#1 455091694#0 455091670 474790286 456356362#2 -334786302#4 -334786302#3 -334786302#2 -334786302#1 -334786302#0 -305873954#3 -305873954#2 305873954#1 792370828#6 22870619#2 553739711 -12714150#0 -12714150#1 -12714150#2 -12714150#3 -12714150#4 -12714150#5 -12714150#6 -12714150#7 -12711862#3 16826213 16004194#2 16004194#3"/>
    </person>
    <person id="ped31" type="ped_pedestrian" depart="31.00">
        <walk edges="479114229#1 479114229#0 26022501#3 -26022501#2 26022501#1 26022501#0 26286923#0 26286923#1 26287309#0 -26287309#1 -778568863#10 -778568863#9 -778568863#8 -778568863#7 -778568863#6 778568863#5 778568863#4 -778568863#3 778568863#2 778568863#1 778568863#0"/>
    </person>
    <person id="ped32" type="ped_pedestrian" depart="32.00">
        <walk edges="26414237#2 -26414237#1 -26414237#0 4637257#10 723297403#0 444464861#7 444464861#6 444464861#5 444464861#4 444464861#3 444464861#2 235379145 235379144 27336257#1 235379146 157742330#8 157742330#9 157742330#10 -331284378#0 -331284378#1 -20192248#2 -20192248#3 -20192248#4 -20192248#5 -455735490#2 -455735490#1 -455735490#0 -553532894 -455735491 -463684962 -4872825#3 -4872825#2 -4872825#1 -4872825#0 -500990449#1 -500990449#0 -464694084#1 -464694084#0 500990445#3 456313039"/>
    </person>
    <person id="ped33" type="ped_pedestrian" depart="33.00">
        <walk edges="22892193#0 453512928#1 -453512930 453512929#1 453512929#0 449631295 449631297#1 449631297#0 433800393#1 433800393#0 433800391 462322697 327643590 436676384 433800070 453283003 327643592#0 327643592#1 -18403189#3 -18403189#2 -18403189#1 -18403189#0 21025588#5 37182258#1 37182258#0 -37182267#1 37182259 545258845#1 545258845#2 27421695#2 -22884381#0 -22884381#1 -22884381#2 21030181#1 -462570687#2 -462570687#1 -462570687#0 341094913#0"/>
    </person>
    <person id="ped34" type="ped_pedestrian" depart="34.00">
        <walk edges="520158434 520158435 93382088 129641869#1 129641869#0 463631266#0 463631266#1 463631266#2 463631263 129641871#0 129641871#1 463631258#0 463631258#1 463631294#0 463631294#1 463631292#0 463631292#1 463631240#0 463631240#1 463631236 454267536 -454267535 164772696#1 164772696#0 90829330 90829307 437151134 -437151135 -313862884#0 -313862884#1 19940220#0 19940220#1 313863011#0 -358794336#0 358794693"/>
    </person>
    <person id="ped35" type="ped_pedestrian" depart="35.00">
        <walk edges="403870862#0 723869799#12 723869799#13 723869799#14 723869799#15 723869799#16 688421011#3 688421011#4 736329523#0 736329523#1 688421004#9 688421004#8 688421004#7 688421004#6 736329517#0 736329517#1 736329516#2 736329516#3 828600795 828600787#0 828600787#1 828600789#6 828600789#5 828600789#4 828600789#3 828600789#2 828600789#1 828600789#0 738660323#4 738660323#5 738660324 738660320#7 738660320#6 738660321 698310866#4 698310866#5 698049464#0 698049464#1 698049464#2 698310860#5 688902503#10 688902503#11 688902503#12 688902503#13 688902503#0 688902503#1 688902916 688902919#1 688902919#0 772184187 772184186#0 690837255 690837254 39115461#2 39115452#1 39115452#0 39115471#4 39115471#3 39115471#2 39115471#1 39115471#0 274693147#4 41258630#0 41258630#1 41258630#2 41258630#3 41258630#4 -4889339 331264966 -414309669#3 -143929992#0 -143929992#1 143929992#2 143929992#3 143930014#0 -143930014#1 -331254290#0"/>
    </person>
    <person id="ped36" type="ped_pedestrian" depart="36.00">
        <walk edges="215564751 157713199#2 157713199#3 157713199#4 157713199#5 -48678890#2"/>
    </person>
    <person id="ped37" type="ped_pedestrian" depart="37.00">
        <walk edges="-28755558#23 -51744522#1 -51744522#0 -27333342#7 -27333342#6 -27333342#5 -27333342#4 152517112#5"/>
    </person>
    <person id="ped38" type="ped_pedestrian" depart="38.00">
        <walk edges="157742339#1 -20192248#1 -20192248#2 -20192248#3 -20192248#4 -20192248#5 20194964#0 20194964#1 20192257#1 20192257#2 20192257#3 744737116#5 744737116#0 744737116#1 744737117#0 744737117#1 744737117#2 744737117#3 744737118#0 167252480#5 167252480#4 167252480#3 167252480#2 167252480#1 -223184233#0 443075135#3 443075135#2 443075135#1 443075135#0 -102232485#10 -102232485#9 -434673387 -434673377#2 -434673377#1 434673389#1"/>
    </person>
    <person id="ped39" type="ped_pedestrian" depart="39.00">
        <walk edges="-251824126#0 46618994#2 46618994#1 46618988#0 46619003#2 339583580 257467511#0 -338841066 -46618971#4 -46618971#3 46618971#2"/>
    </person>
    <person id="ped40" type="ped_pedestrian" depart="40.00">
        <walk edges="20176237#0 755628441#7 755628441#8 755628441#9 497757082 68168408#0 68168408#1 68168408#2 68168408#3 68168408#4 68168408#5 68168408#6 68168408#7 68168408#8 68168408#9 68168408#10 68168408#11 68168408#12 68168408#13 454019021#0 454019021#1 502851347 -454019025 128245169#1 -128245169#0 -463839080 -463839081 -463839082#1 -463839082#0 -463836594 -463836595 -463836596#6 -463836596#5 -463836596#4 -463836596#3 -463836596#2 -463836596#1 -463836596#0 47877701 47880908 47880907 47877698 456385180 456385181 -507342062#1"/>
    </person>
    <person id="ped41" type="ped_pedestrian" depart="41.00">
        <walk edges="-433358106#7 -433358107 -433358104#0 410045860#2 -22894147#1 462297325#2 462297325#3 462297325#4 -747435037#2 -747435037#1 -747435037#0 24575293#10"/>
    </person>
    <person id="ped42" type="ped_pedestrian" depart="42.00">
        <walk edges="142846604#3 -142846604#4 -128246066#2 27394472 143310627#7 143310627#8 19915708#5 19915708#4 19915708#3 19915708#2 19915708#1 19915708#0 -463886943 -463886944 515944005#0 698127488#1 -19915710#0 -476497925#1 -476497925#0 330300633#0 537573930#2 480956327 480956329#4 480956329#5 480956329#6 480956329#7 480956329#8 480956326#2 480956326#1 480956326#0 480956326#7 452385238#11 452385238#10 452385238#9 361481059#5 361481059#6 361481059#7 692875500#0 692875500#1 692875500#2 27395527#0 27395527#1 313163045#2 313163045#1 313163045#0 62154690#6 62154690#5 62154690#4 62154690#3 65067674#0 189744416#1 189744416#0"/>
    </person>
    <person id="ped43" type="ped_pedestrian" depart="43.00">
        <walk edges="229303081#1 229303070#0 229303070#1 229303072 52948944#13 52948944#12 52948944#11 52948944#10 52948944#9 -541187699#1 -541187699#0 541187700 -311201444 68920348#10 68920348#11 464958179#0 464958179#1 464958179#2 464958179#3 108812403 -72886649 411656745#2 411656745#1 411656745#0 68921944 108812408#1 108812408#0 -541187707#7 -541187707#6 -575483649#0 -575483649#1 -20412258#2 -20412258#1 -20411156#1 -20411156#2 -20411156#3 20411156#4 -20411156#5 20412259 408872843#1 -20412264#0 444032253#9 346940732 -20411158#1 -20411158#0"/>
    </person>
    <person id="ped44" type="ped_pedestrian" depart="44.00">
        <walk edges="24535420#1 24535420#2 453266455 -95213678#0 -95213678#1 -463433433#0 -463433433#1 -393850368#0 725383218#0 725383217#0 684473216 684473208#2 723869798#0 684473213#3 717921579#1 717921579#0 594314725 426646171#0 727475395#3 727475395#2 420427007#0 -420427006 -827854628 430830041 48679100 -456352539 -456338149 -26286921#0 -26286921#1 26286924#0 26286924#1 26022501#0 26022501#1 -26022501#2 26022501#3 -205216002 -439916153 -48714594 24445507#0 24445507#1"/>
    </person>
    <person id="ped45" type="ped_pedestrian" depart="45.00">
        <walk edges="-132501395#6 132501377 -409262332 -132501397#7 -132501397#6 132501397#5 132501397#4 -132501397#3 132501397#2 -132501397#1 132501397#0 132599583#0 727588387#1 727588387#0 41590751#1 41590751#0 -639115711#2 465299396#0 465299396#1 465299396#2 465299396#3 465299398#0 465299398#1 465299400 28754810#0 28754810#1 28754810#2 28754810#3 165257883#2 182750659#0 182750659#1 165257877#1 519123348 689693035 690748001#1 690748001#0 341663067 690747991#8 409263542#2 409263542#1 409263542#0 721305739 407596881 721305735 721305736 721305737 407596882 721305738 -263213891#3 -263213891#2 -263213891#1 -263213891#0 263213889#0 263213889#1 263213889#2"/>
    </person>
    <person id="ped46" type="ped_pedestrian" depart="46.00">
        <walk edges="729170147#4 329384211#3 132093451#0 729170147#7 729170146 729170145#2 729170145#1 729170145#0"/>
    </person>
    <person id="ped47" type="ped_pedestrian" depart="47.00">
        <walk edges="182821498#3 -47471311#3 47471311#2 47471311#1 183085083 -47471336#1 188366914 -47471345#0"/>
    </person>
    <person id="ped50" type="ped_pedestrian" depart="50.00">
        <walk edges="24851819#1 -24851819#3 -466692471#2 466692471#1 258321725 409265731#1 409265731#0 28754808#1 697549580#2 80065746#2 80065746#3"/>
    </person>
    <person id="ped51" type="ped_pedestrian" depart="51.00">
        <walk edges="806940723#4 -20112443#7 806940738#3 806940716 806940717#1 806940717#0 806940710 806940705#1 806940705#0 806940704#1 806940704#0 806940702 733125585#0 733125585#1 806940701 704194119#1 704194119#0 704194103#1 251360847 704194127 704194126#0 704194126#1 704194126#2 704194126#3 806940780 806940766#0 806940765#1 806940765#0 806940763#1 806940769#1 806940769#0 806940768#1 806940770#0 806947056#3 806947056#2 806947056#1 806947056#0 806947055 806947058#1 806947058#0 806947057#2 806947079#1 48678925#1 -165325232 352392845 300627773#1 300627773#0 456321034 456318007 456318008#1 456318008#0 -455083988 361607071"/>
    </person>
    <person id="ped52" type="ped_pedestrian" depart="52.00">
        <walk edges="776650739 776650738 776650737 776650782#2 776650782#1 776650782#0 795222226 795222225 795222224 795222223 795222222 795222221 795222220 795222218#4 795222218#3 22894670 -234155500 -460561567 -37182028#6 -37182028#5 -37182028#4 -37182028#3 -37182028#2 -37182028#1 -37182028#0 -207667777#1 -207667777#0 -462564735 -462564733#1 -462564733#0 -462564731#1 -462564731#0 -462564732 -462564729 -462564726 207667776#3 -207667776#2 -207667776#1 -207667776#0 -22884584#8 -22884584#7 -22884584#6 -542829693#0 -542829693#1 -542829693#2 -542829696#2 -542829697#1"/>
    </person>
    <person id="ped53" type="ped_pedestrian" depart="53.00">
        <walk edges="722563871#0 12722469 455093632#1 455093632#0 433010315 455093637 455093636 51541229 455091687#0 10803146#0 10803146#1 11876777#0"/>
    </person>
    <person id="ped54" type="ped_pedestrian" depart="54.00">
        <walk edges="763949959#10 436375739#1 436375739#2 436375740#0 436375740#1 436375740#2 436375740#3 436375740#4 436375482 436375481 436375371 436375274#0 436375274#1 45564527 453489294#0 453489294#1 453489294#2 453489294#3 -4706833 436515365 436516020#1 436516020#0 453733904 453733903 436517276 436517542 436518946 436519244#2 436519244#1 436519244#0 -605573685#0 -605573685#1 -605573685#2 -27208206#0 -27208206#1 -27208206#2 -27208206#3 -27208206#4 -27208206#5 -27208206#6 -27208206#7 -27208206#8"/>
    </person>
    <person id="ped55" type="ped_pedestrian" depart="55.00">
        <walk edges="129039842#2 -48114946#0 -238525037#32 -238525037#33 -238525037#34 238525037#35 -238525037#36 -238525037#37 -238525037#38 -238525037#39 -238525037#40 -238525037#41 -238525037#42 238525037#43 -238525037#44 -238525037#45 -238525037#46 -238525037#47 -238525037#48 238525037#49 238525037#50 -238525037#51 -238525037#52 -238525037#53 -238525037#54 -238525037#55 -238525037#56 -129039844#0 -129039844#1 -129039825#2 -129039720 -129039813#0 452083388#1 740263124#6 740263124#5 740263124#4 48421829#0 48421827 48421816#2 -48423273 -453529000 -680917018#0 -680917018#1 -680917018#2 -680917018#3 -740263119#0 -208569791#9 -208569791#8 -208569791#7 -208569791#6 -208569791#5 -208569791#4 -208569791#3 -208569791#2 -208569791#1 208569791#0"/>
    </person>
    <person id="ped56" type="ped_pedestrian" depart="56.00">
        <walk edges="-334786310#18 -334786310#19 -334786310#20 -334786310#21 453710232 453709667 453709674#0 453709674#1 197425718 453707585 474780656 453703517 197462586#1 709209157 -709209156#1 -709209156#0 -257485235#4 -257485235#5 21294234#2"/>
    </person>
    <person id="ped57" type="ped_pedestrian" depart="57.00">
        <walk edges="366278234 -366278131#0 -366278131#1 -366278126 366278235 -366278133 -12318311#3 -12318311#2 -12318311#1 12318311#0 -12319052 -12317867#3 376173352 -11857315#1 -11857316#0 -11857316#1 -11857316#2 -105223150#26 -105223150#25 -105223150#24 -105223150#23 -105223150#22 -105223150#21 -105223150#20 -105223150#19 -105223150#18 -105223150#17 105223150#16"/>
    </person>
    <person id="ped58" type="ped_pedestrian" depart="58.00">
        <walk edges="-451896528 -464720640 -354345386 -480194793 464720639#1 -179561996 -65355116#4 20223693#10 367859810#0 367859810#1 367859809#0 -65355113#3 -65355113#2 -65355113#1 -65355113#0 722659994#0 -354343234#0 -354343234#1 -354343234#2 -354343234#3 -354343234#4 -452028068 -354371071#0 -354371071#1 -354371071#2 -354371071#3 -354371071#4 -354371071#5 -24360298 -475308628 -474622419 -474622418#0 -474622418#1 -474622418#2 -475308588 -475308587 -475308585 20443205#13 20443205#12 -464121416 20443200#14 -39959541#3 -39959541#2 -39959541#1 -39959541#0"/>
    </person>
    <person id="ped59" type="ped_pedestrian" depart="59.00">
        <walk edges="477891553#1 477902140#0 329694554#22 329694554#21 329694554#20 329694554#19 329694554#18 329694554#17 329694554#16 329694554#15 329694554#14 329694554#13 329694554#12 329694554#11 329694554#10 329694554#9 329694554#8 329694554#7 329694554#6 329694554#5 329694554#4 329694554#3 329694554#2 329694554#1 329694554#0 244648191#0 244648191#1 244648182#1 244648182#2 244648192#0 244648192#1 244648192#2 244648192#3 -37852833 575547253#0 575547253#1 329989223 92352267#7 92352267#6 38343538 -38340487#2 -38340487#3"/>
    </person>
    <person id="ped60" type="ped_pedestrian" depart="60.00">
        <walk edges="310997844 -310997843 -29367871 -199125961 -474753357#1 -474753357#0 478018150#3 478018150#2 -478018150#1 -478018150#0 -173966366 -20194995 -360133550#7 -311051494"/>
    </person>
    <person id="ped61" type="ped_pedestrian" depart="61.00">
        <walk edges="29364998#7 29364998#6 68168408#8 68168408#9 68168408#10 68168408#11 68168408#12 68168408#13 454019021#0 454019021#1 502851347 -454019025 128245169#1 -128245169#0 -463839080 -463839081 -463839082#1 -463839082#0 -463836594 -463836595 -463836596#6 -463836596#5 -463836596#4 -463836596#3 -463836596#2 -463836596#1 -463836596#0 47877701 47880908 47880907 47877698 456385180 456385181 507342062#1 -507342062#0 164831920#1 164831920#0 456385182#1 456385182#0 456383141#2 456383141#1 456383141#0 456383139 374861911#2 374861911#1 374861911#0 606290698 452912053#1 452912053#0 423145128 669996718 367158060 367158058 380144785 671337357#1 -671337357#0 367863238 367863239 520337804 -385913422 741257465 741257467 704188633 719414680 -741257464 -473052060#2"/>
    </person>
    <person id="ped62" type="ped_pedestrian" depart="62.00">
        <walk edges="-129039852#3 -238525037#45 -238525037#44 238525037#43 -238525037#42 -238525037#41 -238525037#40 -238525037#39 -238525037#38 -238525037#37 -238525037#36 238525037#35 -238525037#34 -238525037#33 -238525037#32 -238525037#31 -238525037#30 -238525037#29 -238525037#28"/>
    </person>
    <person id="ped63" type="ped_pedestrian" depart="63.00">
        <walk edges="334858680#1 -334858680#0 -461163004#1 -461163004#0 20448130#18 20448130#19 20448130#20 20448130#21 20448130#22 20448130#23 20448130#24 243245575#6 243245575#5 243245575#4 243245575#3 243245575#2 -361361143#3 -361361143#2 24575901#5"/>
    </person>
    <person id="ped64" type="ped_pedestrian" depart="64.00">