<?xml version="1.0" encoding="UTF-8"?>

<!-- generated on 08/17/20 15:05:45 by Eclipse SUMO duarouter Version 1.6.0
<configuration xmlns:xsi="http://www.w3.org/2001/XMLSchema-instance" xsi:noNamespaceSchemaLocation="http://sumo.dlr.de/xsd/duarouterConfiguration.xsd">

    <input>
        <net-file value="montreal.net.xml"/>
        <route-files value="Trips/montreal.bus.trips.xml"/>
    </input>

    <output>
        <output-file value="routes.rou.xml"/>
        <alternatives-output value="routes.rou.alt.xml"/>
    </output>

    <time>
        <begin value="0"/>
        <end value="600.0"/>
    </time>

    <report>
        <no-warnings value="true"/>
        <ignore-errors value="true"/>
        <no-step-log value="true"/>
    </report>

</configuration>
-->

<routes xmlns:xsi="http://www.w3.org/2001/XMLSchema-instance" xsi:noNamespaceSchemaLocation="http://sumo.dlr.de/xsd/routes_file.xsd">
    <vType id="bus_bus" vClass="bus"/>
    <vehicle id="bus0" type="bus_bus" depart="0.00" departLane="best">
        <route edges="27126810 472547293 -472547293 -27126810 -453528896#32 -453528896#31 -453528896#30 -453528896#29 -453528896#28 -453528896#27 -453528896#26 -453528896#25 -453528896#24 -453528896#23 -453528896#22 -453528896#21 -453528896#20 -453528896#19 -453528896#18 -453528896#17 -453528896#16 -453528896#15 -453528896#14 -453528896#13 -453528896#12 -453528896#11 -453528896#10 -453528896#9 -453528896#8 -453528896#7 -453528896#6 -453528896#5 -453528896#4 -453528896#3 -453528896#2 -453528896#1 -453528896#0 -453497309 -453497308#14 -453497308#13 -453497308#12 -453497308#11 -453497308#10 -453497308#9 -453497308#8 -453497308#7 -453497308#6 -453497308#5 -453497308#4 -453497308#3 -453497308#2 -453497308#1 -453497308#0 -599021478 -26914399#9 -26914399#8 -26914399#7 -26914399#6 -26914399#5 -26914399#4 -26914399#3 -26914399#2 -26914399#1 -26914399#0 -27407126#6 -27407126#5 -27407126#4 -27407126#3 -27407126#2 -27407126#1 -27407126#0 -462527502 -462527503#2 -462527503#1 -462527503#0 27407132#0 27407132#1 27407132#2 27407132#3 27407132#4 27407132#5 27407132#6 27407132#7 27407132#8 459377012#0 459377012#1 459377012#2 459377012#3 459377011 27419234#0 27419234#1 27419234#2 27419234#3 27419234#4 27419234#5 27419234#6 27419234#7 459375366 48889372#0 48889372#1 48889372#2 48889372#3 48889372#4 48889372#5 459774845 459774846 452652520#0 452652520#1 507031518#0 507031518#1 507031518#2 507031518#3 507031518#4 507031518#5 393695631 471793538 471793537 494791317#0 494791317#1 366056239 451576966 455314960#0 455314960#1 20939831#0 20939831#1 20939831#2 20939831#3 459595454 -459796867 -46699729#12 -46699729#11 -46699729#10 -46699729#9 -46699729#8 -46699729#7 -46699729#6 -46699729#5 -46699729#4 -46699729#3 -46699729#2 -46699729#1 -46699729#0 -460021303 -460021304 -460022698 -460021305 -451902802 -451899897#4 -451899897#3 -451899897#2 -451899897#1 -451899897#0 46699768#0 46699768#1 46699768#2 46699768#3 46699768#4 46699741 465355503 -329384196#2 -329384196#1 -329384196#0 -451902822#1 -451902822#0 -728802373 -460536607 -460541668#1 -460541668#0 -460541669 -460541670 -460543943 -460543944 -460543946 -817950735#4 -817950735#3 -817950735#2 -817950735#1 -817950735#0 -461163008#7 -461163008#6 -461163008#5 -461163008#4 -461163008#3 -461163008#2 -461163008#1 -461163008#0 -461163009 -461163000#2 -461163000#1 -461163000#0 -461163002#1 -461163002#0 -461162995 -461162998#3 -461162998#2 -461162998#1 -461162998#0 -461162993#1 -461162993#0 -83895946#1 -83895946#0 560960813#0 560960813#1 560960811 560960812 -784937582#3 -784937582#2 -784937582#1 -784937582#0 -341093395#9 -341093395#8 -341093395#7 -341093395#6 -341093395#5 -341093395#4 -341093395#3 -341093395#2 -341093395#1 -341093395#0 -463433447#1 -463433447#0 -463433448#4 -463433448#3 -463433448#2 -463433448#1 -463433448#0 -463433445 -463433446#2 -463433446#1 -463433446#0 -463433443#2 -463433443#1 -463433443#0 -463433444#2 -463433444#1 -463433444#0 -242961308#4 -242961308#3 -242961308#2 -242961308#1 -242961308#0 -455478683#1 -455478683#0 -458454765#3 -458454765#2 -458454765#1 -458454765#0 -458454763 -458454760 -329989911#1 -329989911#0 -458450993 -458450994#1 -458450994#0 -458438675 -458438683 -457924060 -329795964#1 -329795964#0 -453989316#1 -453989316#0 -465380604#1 -465380604#0 -465380605 -465381269#1 -465381269#0 -465381271 -41551807#2 -41551807#1 -41551807#0 -165334551 165334553 165334552#0 165334552#1 329384205 794905835#0 794905835#1 794905835#2 794905835#3 794905835#4 794905835#5 794905835#6 794905835#7 794905835#8 465416568#0 465416568#1 465416569#0 465416569#1 465416569#2 329384211#0 329384211#1 329384211#2 329384211#3 132093451#0 132093451#1 329384202#0 329384202#1 -111771059#1 -111771059#0 -134811809#1 -134811809#0 -465413238 -465413240#1 -465413240#0 -465413237 -465413243#1 -465413243#0 -165257881#2 -165257881#1 -165257881#0 -455083999#2 -455083999#1 -455083999#0 -461254935#2 -461254935#1 -461254935#0 -465411710#1 -465411710#0 -191563437#2 -191563437#1 -191563437#0 -465411714#1 -465411714#0 -465411715#2 -465411715#1 -465411715#0 -465411713#1 -465411713#0 -465411709 -465408858#1 -465408858#0 -465408860#2 -465408860#1 -465408860#0 -165217870#2 -165217870#1 -165217870#0 -465411712#1 -465411712#0 -465411711 -465408862#3 -465408862#2 -465408862#1 -465408862#0 -465408857#1 -465408857#0 -465408864#1 -465408864#0 561490750#0 561490750#1 561490747 561490746 -329067231#7 -329067231#6 -329067231#5 -329067231#4 -329067231#3 -329067231#2 -329067231#1 -329067231#0 -475308535 -474838161 -474838162#1 -474838162#0 -474838163#4 -474838163#3 -474838163#2 -474838163#1 -474838163#0 -453741481 -453729929 -453727318 -468774195 -453727319#5 -453727319#4 -453727319#3 -453727319#2 -453727319#1 -453727319#0 -453725261 -463622074#1 -463622074#0 -463622073 -453725263#3 -453725263#2 -453725263#1 -453725263#0 -454309327 -316470333 -455042512 107700940#0 107700940#1 48431509 48431514#0 48431514#1 48431514#2 -463848445#2 -463848445#1 -463848445#0 -463848446 -165215478#6 -165215478#5 -165215478#4 -165215478#3 -165215478#2 -165215478#1 -165215478#0 165215465#0 165215465#1 197314076 197314916 165214767#0 165214767#1 165214767#2 165214767#3 165214767#4 385916360 453975594 456385180 -456385181 -507342062#1 -507342062#0 507342063 48210643#0 48210643#1 78089336#0 78089336#1 456383140 456383138 165214764#0 165214764#1 165214764#2 606290697 606290699#0 606290699#1 605634365 540088464 669996720 367158063 385917476 749246969 385913418#0 385913418#1 563132947 563132948 420427012 475097853#0 475097853#1 475097853#2 681064715#2 681064715#3 681064715#4 111626002#0 111626002#1 52732455 452102186#0 452102186#1 452108936#0 452108936#1 52732456#0 52732456#1 52732456#2 52732456#3 52732456#4 52732456#5 52732456#6 -302696353#2 -302696353#1 -302696353#0 -452693109 -452693110 -302696354 -452693111 -129387434#3 -129387434#2 -129387434#1 -129387434#0 475841749 48160789#0 48160789#1 451896830#1 451896830#2 499892370 499892372#0 499892372#1 477486651 477486650 555505982 456360852 453533478 424837410#0 424837410#1 424837410#2 424837410#3 473015245 48160800 -141020526#1"/>
    </vehicle>
    <vehicle id="bus3" type="bus_bus" depart="6.00" departLane="best" departSpeed="max">
        <route edges="47470860#0 47470860#1 47470860#2 47470860#3 -822237466#24 -822237466#23 -822237466#22 -822237466#21 -822237466#20 -822237466#19 -822237466#18 -822237466#17 12116824#0 12116824#1 12116824#2 12116824#3 12116824#4 12116824#5 12116824#6 455503627#0 455503627#1 455503627#2 467440216#0 467440216#1 553917827#0 553917827#1 553917820 553917819 455503624 474757438#0 474757438#1 474757438#2 474757438#3 474757438#4 474757438#5 474757438#6 453702362#0 453702362#1 453702362#2 607254955#0 607254955#1 607254953 453703521#0 453703521#1 453703521#2 453706524 453706525 453707584 453707582 12122998 12122869 453709671 453714265 456335820#0 456335820#1 456335820#2 456335820#3 456335820#4 456335820#5 -20870210 -20863308#7 -20863308#6 -20863308#5 -20854605#23 -20854605#22 -20854605#21 -20854605#20 -20854605#19 -20854605#18 -20854605#17 -20854605#16 -20634208#2 -20634208#1 -20634208#0 -20694383#2 -20694383#1 -20694383#0 -20634944#4 20685518#3 20685518#4 20685518#5 20685518#6 -20689388#1 -20689035#3 -20689035#2 -20689035#1 -20689035#0"/>
    </vehicle>
    <vehicle id="bus4" type="bus_bus" depart="8.00" departLane="best">
        <route edges="164612199#0 -45796139 -164612202#0 436231213#4 436231213#5 436231213#6 436231213#7 436231213#8 436231213#9 436231213#10 436231213#11 436231213#12 436231213#13 574707955 574707948 436231215 455050100 457836502 574740141 358278871 545487479 362673729 454008094 454008473#0 454008473#1 454007013 466601667#0 466601667#1 466601667#2 466601667#3 466601671 47564050 47564063 47564026 455056727 455056533 455056528 455061362 455061360 455061361 47563250 455080418 455081622 455081621 455081894#0 455081894#1 455080419 105223145#0 453760411 453760410 -16425015#3 -16425015#2 -16425015#1 -16425015#0 -16422367#4 -16422367#3 16423860#0 16423860#1 16422798#3 16422798#4 16422798#5 16424571#0 16424571#1 16424571#2 16424571#3 16424571#4 16424571#5 -16424571#5"/>
    </vehicle>
    <vehicle id="bus5" type="bus_bus" depart="10.00" departLane="best">
        <route edges="-379987210 -618321880 -382266162 -463624800 366902788 779694801#0 779694801#1 779694801#2 585260925 531590338#0 474799194 439958483 503887768 368849055 20567440#0 20567440#1 20567440#2 40631278 337621741 658499852 162436717#0 162436717#1 162436717#2 463847522 463847521 463847520#0 463847520#1 453975586 165215475 35177047 35177045 197314916 165214767#0 165214767#1 165214767#2 165214767#3 165214767#4 385916360 453975594 456385180 -456385181 -507342062#1 -507342062#0 507342063 48210643#0 48210643#1 78089336#0 78089336#1 456383140 456383138 165214764#0 165214764#1 165214764#2 606290697 606290699#0 606290699#1 605634365 540088464 669996720 367158063 385917476 749246969 385913418#0 385913418#1 563132947 563132948 420427012 475097853#0 475097853#1 475097853#2 367859330 25079118#0 25079118#1 25079118#2 25079118#3 104938749 198873333 47919051#2 10764803#0 10764803#1 10764803#2 10764803#3 419811054 419811055#0 419811055#1 419811055#2 419811055#3 105391640 105391468#0 105391468#1 548254285 495683420 86573284 86573283 86573285 86573278#0 86573278#1 86573278#2 86573278#3 86573278#4 827036262#0 827036262#1 827036262#2 827036262#3 827036262#4 827036262#5 827036262#6 827036262#7 827036262#8 11393024 11393007#0 11393007#1 11393007#2 359253594 359253595#0 359253595#1 20667249 -359441301 -359441302 -217912833 -538851393#2 20512954#6"/>
    </vehicle>
    <vehicle id="bus6" type="bus_bus" depart="12.00" departLane="best">
        <route edges="-152517068#2 -152517068#1 -152517068#0 -152517109#1 -152517109#0 -31015797 46688868#0 46688868#1 46688868#2 46688868#3 46688868#4 46688868#5 46688868#6 46688868#7 46688868#8 46688868#9 46688868#10 46688868#11 46688868#12 46688868#13 46688868#14 617518803 46688924 617518801 59434220 288388568#0 288388568#1 288388568#2 288388568#3 59434216#0 59434216#1 617504968 617504967 617504966 635298377 617504959 617504960#0 617504960#1 617504960#2 617504960#3 617504960#4 635299612 471504959 475840404 471504963 471505296 471505548#0 471505548#1 4883056#0 4883056#1 4883056#2 4883056#3 454843544 454843552 454843543 454843558 454843553 454843560#0 454843560#1 454843551#0 454843551#1 454843548 454843557 309686817 131828404 454837291 454837299 454837297 131828385#0 131828385#1 131828385#2 131828385#3 131828385#4 131828385#5 604484759 37859261#0 37859261#1 37859261#2 37859261#3 460939674 460939673 460919413 460919412 460919411#0 460919411#1 460919411#2 460919411#3 452080886 452080887 452080885 37859260#0 37859260#1 37859260#2 37859260#3 37859260#4 37859260#5 455264719#0 455264719#1 455264716 455264720#0 455264720#1 455264720#2 455264720#3 435636025 37859259#0 37859259#1 37859259#2 37859259#3 37859259#4 37859259#5 37859259#6 460751342 460751341 460751546 460751545 460751544 460751543 460751542 460751541 452044778 455264717 455264718 460754483#0 460754483#1 460754482 460754481 460754480#0 460754480#1 460754480#2 460754479 460754478 37859258#0 37859258#1 37859258#2 37859258#3 464121420#0 464121420#1 464121420#2 464121422 464121421 464121418#0 464121418#1 464696732#0 464696732#1 341094445#0 341094445#1 464696731#0 464696731#1 37859257#0 37859257#1 37859257#2 37859257#3 37859257#4 463398919 463398917 463398918 463398916 463398915 452641477#0 452641477#1 354348777 462771098 452641476 462771099 463398911 766091391 463398913 452083264#0 452083264#1 766091390#0 766091390#1 452083265#0 452083265#1 463427610#0 463427610#1 463427611 334772516 463427607 463427608 456308964 452402661 164976439 330720153#0 330720153#1 330720152 463472300 463472299 463472298#0 463472298#1 247350382 184778977#0 184778977#1 692788659 41258734 160843725 456314901 452402664 452402663 452402665 452402662 452402666 452403740 452403741 452379380 396983231 452379378 449521199 408869213#0 408869213#1 408869213#2 20411845#0 20411845#1 20411845#2 409071413#0 409071413#1 409071413#2 240505090#0 240505090#1 240505090#2 240505090#3 240505090#4 240505090#5 240505090#6 240505090#7 240505085#0 240505085#1 240505085#2 604596692 38151424 -396936326 -38151423 108770103#0 108770103#1 20411859#0 20411859#1 546468830#0 546468830#1 546468830#2 546468830#3 546468830#4 546468830#5 546468830#6 20413126#0 20413126#1 538193453 598980523#0 598980523#1 598980523#2 598980523#3 598980523#4 598980523#5 598980523#6 598980523#7 598980523#8 598980523#9 -396961228#3 -396961228#2 -396961228#1 -396961228#0 173620158 471722611 37891137#11 37891137#12 37891137#13 37891137#14 37891137#15 37891137#16 37891137#17 324615484#0 324615484#1 404292739 404292740 324619232 367503000#0 367503000#1 324619229 398943484#0 398943484#1 398943484#2 398943964 358647473 413659308 358647471 544667749 14059910#0 14059910#1 14059910#2 14059910#3 14059910#4 14059910#5 14059910#6 14059910#7 14059910#8 14059910#9 14059910#10 14059910#11 14059910#12 14059910#13 14059910#14 14059910#15 14059910#16 14059910#17 14059910#18 14059910#19 14059910#20 14059910#21 14059910#22 14059910#23 14059910#24 14059910#25 832706763#0 832706763#1 47653125 683409564#0 683409564#1 683409564#2 452383696 434337782 434337783 361817853 11039521 219060832#22 219060832#23 219060832#24 219060832#25 219060832#26 219060832#27 11039554 361819850 361819851 460538276 454007014 454007011 219060905#0 219060905#1 466597407 454006498 454006501#0 454006501#1 -454005850 -121929368#7 -121929368#6 -121929368#5 -121929368#4 -121929368#3 -121929368#2 -121929368#1 -121929368#0 -454003804 -454003805#1 -454003805#0 -25876108#8 -25876108#7 182916766#0 -35152247#4 -35152247#3 -35152247#2 -35152247#1 35152198#0 -35152198#0"/>
    </vehicle>
    <vehicle id="bus7" type="bus_bus" depart="14.00" departLane="best">
        <route edges="27233340#1 131252263#0 131252263#1 27233696 -45795955 -185081191#6 45796161#0 45796161#1 635890140 635890139 635890138 45796194 -22797590#19 -22797590#18 -22797590#17 -22797590#16 -22797590#15 -22797590#14 -22797590#13 -22797590#12 -22797590#11 -22797590#10 -22797590#9 -22797590#8 -22797590#7 -22797590#6 -22797590#5 22797586#4 607045990#0 607045990#1 607045990#2 607045990#3 607045990#4 607045990#5 361092556#0 361092556#1 361092556#2 361092556#3 607045984 179131905 22797588 22797589 164258580#9 164258580#10 164258580#11 164258580#12 47565957 437728000 437728248#0 437728248#1 437728812 434337781 509218471 509218474 21181176 21181178#0 21181178#1 47654047 272855256 272855257 358647472 358647469 358647474 21181190#0 21181190#1 21181190#2 164612927#0 164612927#1 164612927#2 164612927#3 164612927#4 164612927#5 164612927#6 164612927#7 164612927#8 164612927#9 164612927#10 453543770 453543771 368131069 453543772#0 453543772#1 453543772#2 191008781#0 191008781#1 177235878 177235876#0 177235876#1 177235876#2 177235876#3 177235876#4 177235876#5 177235876#6 -454014493 -60102020#1 -60102020#0 -454014494 -453293298 -199260849 465427172 199260847#0 199260847#1 199260847#2 477683884#0 477683884#1 453298230 477684655 453298970 605184601 423515078#0 423515078#1 423515078#2 453278545#0 453278545#1 139295757 139295760#0 139295760#1 604912833 680918553 47919128#0 47919128#1 47919128#2 680918557#0 680918557#1 -22566320#1 22566321"/>
    </vehicle>
    <vehicle id="bus8" type="bus_bus" depart="16.00" departLane="best">
        <route edges="-38742080#6 -38742080#5 -38742080#4 -38742080#3 -38742080#2 -38742080#1 -38742080#0 -642975952#8 684244546#0 684244546#1 684244546#2 684244546#3 165085314#0 165085314#1 165085314#2 165085314#3 165085314#4 165085314#5 165085314#6 165085314#7 165085314#8 433012893 184752132#0 184752132#1 184752132#2 184752132#3 184752132#4 184752132#5 25876108#4 25876108#5 25876108#6 25876108#7 25876108#8 454003805#0 454003805#1 454003804 121929368#0 121929368#1 121929368#2 121929368#3 121929368#4 121929368#5 121929368#6 121929368#7 454005850 454005849 454006500#0 454006500#1 454006499 466597406 47563213#0 47563213#1 474805622#0 474805622#1 474805622#2 466601667#0 466601667#1 466601667#2 466601667#3 466601671 47564050 47564063 11042554 21137949#2 11042360 20944958#1 20944958#2 434337780 683409571 437728000 437728248#0 437728248#1 437728812 434337781 509218471 509218474 21181176 21181178#0 21181178#1 47654047 272855256 272855257 358647472 358647469 358647474 21181190#0 21181190#1 21181190#2 544667750#0 544667750#1 367502999 367502998 74777417#0 74777417#1 74777417#2 74777417#3 74777417#4 74777417#5 74777417#6 409068393 453946158 453946155 471722612#0 471722612#1 471722612#2 396961228#0 396961228#1 396961228#2 396961228#3 20413132#0 20413132#1 20413132#2 20413132#3 20413132#4 20413132#5 20413132#6 20413132#7 598980525 240505087 411471152#0 411471152#1 411471152#2 20411862 396936325#0 396936325#1 475853535#0 475853535#1 38151423 396936326 108770109 475846663 240505089#0 240505089#1 240505089#2 240505089#3 240505089#4 240505089#5 240505089#6 240505089#7 240505089#8 240505089#9 240505098#0 240505098#1 240505098#2 444032252#3 165120282#0 165120282#1 449521201 396983228#0 396983228#1 396983228#2 452379379 -452379380 -452403741 -452403740 -452402666 -452402662 -452402665 -452402663 -452402664 -456314901 -160843725 184778964 184778963 -692788659 -184778977#1 -184778977#0 184778974 -463472298#1 -463472298#0 -463472299 -463472300 -330720152 -330720153#1 -330720153#0 -164976439 -452402661 -456308964 -463427608 -463427607 -334772516 -463427611 -463427610#1 -463427610#0 -452083265#1 -452083265#0 37859256 766091389#0 766091389#1 452645963 463398914 463398912 452083266 766091392 -462771099 -452641476 -462771098 -354348777 -452641477#1 -452641477#0 -463398915 -463398916 -463398918 -463398917 -463398919 -37859257#4 -37859257#3 -37859257#2 -37859257#1 -37859257#0 -464696731#1 -464696731#0 -341094445#1 -341094445#0 -464696732#1 -464696732#0 -464121418#1 -464121418#0 -464121421 -464121422 -464121420#2 -464121420#1 -464121420#0 -37859258#3 -37859258#2 -37859258#1 -37859258#0 -460754478 -460754479 -460754480#2 -460754480#1 -460754480#0 -460754481 -460754482 -460754483#1 -460754483#0 -455264718 -455264717 -452044778 -460751541 -460751542 -460751543 -460751544 -460751545 -460751546 -460751341 -460751342 -37859259#6 -37859259#5 -37859259#4 -37859259#3 -37859259#2 -37859259#1 -37859259#0 -435636025 -455264720#3 -455264720#2 -455264720#1 -455264720#0 -455264716 -455264719#1 -455264719#0 -37859260#5 -37859260#4 -37859260#3 -37859260#2 -37859260#1 -37859260#0 -452080885 -452080887 -452080886 -460919411#3 -460919411#2 -460919411#1 -460919411#0 -460919412 -460919413 -460939673 -460939674 -37859261#3 -37859261#2 -37859261#1 -37859261#0 -604484759 455469154 455264666 460939766 455264677#0 455264677#1 455264677#2 22909925 452080860 459518154 459518153 459518149 454825237#0 454825237#1 454825237#2 454825237#3 473798175 454825235 454825220 454825209 454825705 454825701 -237848505#3 -237848505#2 -237848505#1 -237848505#0 -459819366#2 -459819366#1 22915951#0 22915951#1 22915993#0 22915993#1 22915993#2 -22915996 22915996"/>
    </vehicle>
    <vehicle id="bus9" type="bus_bus" depart="18.00" departLane="best">
        <route edges="45569312#1 -475297463 -45795930#17 -45795930#16 -45795930#15 -45795930#14 -45795930#13 -45795930#12 -45795930#11 -45795930#10 -45795930#9 -45795930#8 -45795930#7 -45795930#6 -45795930#5 -45795930#4 -45795930#3 -45795930#2 -45795930#1 -45795930#0 45796864#0 21060635#1 24575850 24575851 47623937 540069790 475307772#0 475307772#1 475307767 45796884#0 45796884#1 45796884#2 45796884#3 45796884#4 47566037#0 47566037#1 45796889 220681338 12733339 217184999 47784861 617687061 12733451 47845859#1 683409570#0 683409570#1 683409570#2 683409569#0 683409569#1 12227412#0 12227412#1 832706762#0 832706762#1 832706762#2 832706762#3 832706762#4 832706762#5 832706762#6 832706762#7 832706762#8 832706762#9 832706762#10 832706762#11 832706762#12 832706762#13 832706762#14 832706762#15 832706762#16 21181178#0 21181178#1 47654047 272855256 272855257 358647472 358647469 358647474 21181190#0 21181190#1 21181190#2 544667750#0 544667750#1 367502999 367502998 74777417#0 74777417#1 74777417#2 74777417#3 74777417#4 74777417#5 74777417#6 409068393 453946158 453946155 471722612#0 471722612#1 471722612#2 396961228#0 396961228#1 396961228#2 396961228#3 20413132#0 20413132#1 20413132#2 20413132#3 20413132#4 20413132#5 20413132#6 20413132#7 598980525 240505087 411471152#0 411471152#1 411471152#2 20411862 396936325#0 396936325#1 475853535#0 475853535#1 38151423 396936326 108770109 475846663 240505089#0 240505089#1 240505089#2 240505089#3 240505089#4 240505089#5 240505089#6 240505089#7 240505089#8 240505089#9 240505098#0 240505098#1 240505098#2 444032252#3 165120282#0 165120282#1 449521201 396983228#0 396983228#1 396983228#2 452379379 -452379380 -452403741 -452403740 -452402666 -452402662 -452402665 -452402663 -452402664 -456314901 -160843725 184778964 184778963 -692788659 -184778977#1 -184778977#0 184778974 -463472298#1 -463472298#0 -463472299 -463472300 -330720152 -330720153#1 -330720153#0 -164976439 -452402661 -456308964 -463427608 -463427607 -334772516 -463427611 -463427610#1 -463427610#0 -452083265#1 -452083265#0 37859256 766091389#0 766091389#1 452645963 463398914 463398912 452083266 766091392 -462771099 -452641476 -462771098 -354348777 -452641477#1 -452641477#0 -463398915 -463398916 -463398918 -463398917 -463398919 -37859257#4 -37859257#3 -37859257#2 -37859257#1 -37859257#0 -464696731#1 -464696731#0 -341094445#1 -341094445#0 -464696732#1 -464696732#0 -464121418#1 -464121418#0 -464121421 -464121422 -464121420#2 -464121420#1 -464121420#0 -37859258#3 -37859258#2 -37859258#1 -37859258#0 -460754478 -460754479 -460754480#2 -460754480#1 -460754480#0 -460754481 -460754482 -460754483#1 -460754483#0 -455264718 -455264717 -452044778 -460751541 -460751542 -460751543 -460751544 -460751545 -460751546 -460751341 -460751342 -37859259#6 -37859259#5 -37859259#4 -37859259#3 -37859259#2 -37859259#1 -37859259#0 -435636025 -455264720#3 -455264720#2 -455264720#1 -455264720#0 -455264716 -455264719#1 -455264719#0 -37859260#5 -37859260#4 -37859260#3 -37859260#2 -37859260#1 -37859260#0 -452080885 -452080887 -452080886 -460919411#3 -460919411#2 -460919411#1 -460919411#0 -460919412 -460919413 -460939673 -460939674 -37859261#3 -37859261#2 -37859261#1 -37859261#0 -604484759 -131828385#5 -131828385#4 -131828385#3 -131828385#2 -131828385#1 -131828385#0 131828406 454837293 454837304 454837290 471507855 75608016 471507852 37814033#1 37814033#2 202236597 22909953#1 20938278 94846451#0 94846451#1 94846451#2 681975029 567329634#0 31016309 31016323#4 31016323#5 31016323#6 31016323#7 29146012 152517085#0 46686713#4 46686713#5 46686713#6 46686713#7 46686713#8 -110479584#1 -110479584#0"/>
    </vehicle>
    <vehicle id="bus10" type="bus_bus" depart="20.00" departLane="best">
        <route edges="455303017 -455303017 22909933#0 22909933#1 -358966518#5 -358966518#4 -358966518#3 -358966518#2 -358966518#1 -358966518#0 455264669#1 455264669#2 560975049 454275929 560995890 560975047#0 560975047#1 547989663#0 547989663#1 547989663#2 547989663#3 454275919 454275915 20218619#0 20218619#1 20218619#2 20218619#3 20218619#4 20218619#5 20218619#6 20218619#7 20218619#8 20218619#9 20218619#10 20218619#11 460914081 460914080#0 460914080#1 455264685#0 455264685#1 455264682 455264689#0 455264689#1 455264689#2 455264689#3 455264689#4 455264689#5 452044762#0 452044762#1 783158374#1 433810298#0 433810298#1 783158378 460561648 460561647 433810297 460563641 330301189#0 330301189#1 460563640 330153494 783158385 330153491#0 330153491#1 460510194 460510203#0 460510203#1 460510199 460703584 460703583 330153478#0 330153478#1 454272336 454272332 454272335#0 454272335#1 463631266#0 463631266#1 463631266#2 463631263 129641871#0 129641871#1 463631258#0 463631258#1 463631294#0 463631294#1 463631292#0 463631292#1 463631240#0 463631240#1 463631236 454267536 164772690#0 164772690#1 164772695 90829342 454241505 454241504 463631227#0 463631227#1 90829311#0 90829311#1 463631226 464080252#0 464080252#1 341093398#0 341093398#1 341093398#2 341093398#3 453992346 453992345 452069031 452069030 452095256 452069032#0 452069032#1 452065064#0 452065064#1 452065069 452065062 452065074#0 452065074#1 452065074#2 464057450#0 464057450#1 464057450#2 463886934#0 463886934#1 463886934#2 463886934#3 452385240#0 452385240#1 452385241#0 452385241#1 452385241#2 330301757#0 330301757#1 173960041#0 173960041#1 173960041#2 454888149#0 454888149#1 454888148 330153475#0 330153475#1 330153475#2 330153475#3 465152992 465152999#0 465152999#1 465152999#2 465195716#0 465195716#1 465195716#2 465195716#3 465195716#4 465195715 173966368#0 173966368#1 173966368#2 173966368#3 173966368#4 173966368#5 173966368#6 173966368#7 173966368#8 173966368#9 173966368#10 173966368#11 393663205 725171455#0 725171455#1 725171455#2 725171455#3 725171455#4 725171455#5 725171455#6 393659758 393659757#0 393659757#1 393659757#2 393659757#3 393659757#4 393659757#5 393659757#6 393659757#7 48921991#0 48921991#1 48921991#2 48921991#3 48921991#4 48921991#5 329384205 453989323#0 453989323#1 453989323#2 453989323#3 453989322 34144392#0 34144392#1 34144392#2 464943211 39368249#0 39368249#1 39368249#2 39368249#3 19894605#2 19894605#3 479129093 312955853 479129089#0 479129089#1 312955854#0 312955854#1 312955854#2 312955854#3 312955854#4 312955854#5 312955854#6 479129085#0 479129085#1 19896202#0 19896202#1 422539714#0 422539714#1 60116375#0 60116375#1 60116375#2 60116377#0 60116377#1 60116377#2 60116377#3 60116377#4 -456321033 -356391598 -464718640 -464718641 -377233443#1 -377233443#0 377233442#0 377233442#1 377233441#0 377233441#1 377233441#2 38700726#0 38700726#1 38700726#2 38700726#3 -456353760#2 -456353760#1 -456353760#0 366840862#6 366840862#7 366840862#8 366840862#9 366840862#10 366840862#11 366840862#12 366840862#13 366840862#14"/>
    </vehicle>
    <vehicle id="bus11" type="bus_bus" depart="22.00" departLane="best">
        <route edges="-503377032#1 -48917311#15 -48917311#14 -48917311#13 -48917311#12 -48917311#11 -48917311#10 -48917311#9 -48917311#8 -48917311#7 -48917311#6 -48917311#5 -48917311#4 -48917311#3 -48917311#2 -48917311#1 -48917311#0 -453528896#37 -453528896#36 -453528896#35 -453528896#34 -453528896#33 -453528896#32 453521233 457930271 453528151 453521231 453521558 453521561 453521568 453521574 20928905#0 20928905#1 20928905#2 20928905#3 20928905#4 32793924#0 32793924#1 32793924#2 32793924#3 32793924#4 32793924#5 32793924#6 49742082 453707039#0 453707039#1 453707039#2 453707036 49742083#0 49742083#1 49742083#2 49742083#3 49742083#4 49742083#5 49742083#6 49742083#7 453708799 453708798 453708804#0 453708804#1 588104413 30176403#0 30176403#1 30176403#2 30176403#3 452683941 455446751#0 455446751#1 455446751#2 455446751#3 455446746 46678052#0 46678052#1 46678052#2 46678052#3 46678052#4 46678052#5 46678052#6 46678052#7 46678052#8 46678052#9 46678052#10 46678052#11 46678052#12 46678052#13 453511889 453511894 554200614 554200613 453511896#0 453511896#1 453511896#2 453511896#3 453511896#4 453511892#0 453511892#1 116591809 116591820#0 116591820#1 116591820#2 237846324#0 46686627#0 46686627#1 471829151#1 -284915234#4 -284915234#3 -284915234#2 -284915234#1 -284915234#0 -459580498 -459580506 -393819071#1 -393819071#0 -459393681 -459393685 -459393682 -459393686 -455683483 -393819069 455683477 471483857#0 471483857#1 471483855 25916344#0 25916344#1 -25916344#1"/>
    </vehicle>
    <vehicle id="bus12" type="bus_bus" depart="24.00" departLane="best">
        <route edges="57754465#5 -543113474#7 -543113474#6 -543113474#5 -543113474#4 -543113474#3 -543113474#2 -543113474#1 630097219#1 630097219#2 630097219#3 452064955 452063697 452063698#0 452063698#1 452063698#2 452063698#3 452065523 452068067#0 452068067#1 452068067#2 452068067#3 452068066 452075332 463883635#0 463883635#1 463883623 169869917#0 169869917#1 453261029#0 453261029#1 22818099 203111931 832706762#11 832706762#12 832706762#13 832706762#14 832706762#15 832706762#16 21181178#0 21181178#1 47654047 272855256 272855257 358647472 358647469 358647474 21181190#0 21181190#1 21181190#2 164612927#0 164612927#1 164612927#2 164612927#3 164612927#4 164612927#5 164612927#6 164612927#7 164612927#8 164612927#9 164612927#10 453543770 453543771 368131069 453543772#0 453543772#1 453543772#2 191008781#0 191008781#1 177235878 177235876#0 177235876#1 177235876#2 177235876#3 177235876#4 177235876#5 177235876#6 -454014493 -60102020#1 -60102020#0 -454014494 -453293298 -199260849 465427172 199260847#0 199260847#1 199260847#2 477683884#0 477683884#1 453298230 477684655 453298970 605184601 423515078#0 423515078#1 423515078#2 453278545#0 453278545#1 139295757 139295760#0 139295760#1 604912833 680918553 47919128#0 47919128#1 47919128#2 680918557#0 680918557#1 47919076 -48210912#14 -48210912#13 -48210912#12 -48210912#11 -48210912#10 -48210912#9 -48210912#8 -48210912#7 -48210912#6 -48210912#5 -48210912#4 -48210912#3 -48210912#2 -48210912#1 -48210912#0 804254970#0 804254970#1 804254970#2 804254970#3 804254970#4 -22662909#1 -22662909#0 -22662908#0 -561452254"/>
    </vehicle>